                                  MODFLOW-2005     
      U.S. GEOLOGICAL SURVEY MODULAR FINITE-DIFFERENCE GROUND-WATER FLOW MODEL
                            VERSION 1.12.00 2/3/2017

 LIST FILE: modelface.list
                         UNIT    2

 OPENING modelface.dis
 FILE TYPE:DIS   UNIT   11   STATUS:OLD    
 FORMAT:FORMATTED              ACCESS:SEQUENTIAL          

 OPENING modelface.bas
 FILE TYPE:BAS6   UNIT   13   STATUS:OLD    
 FORMAT:FORMATTED              ACCESS:SEQUENTIAL          

 OPENING modelface.lpf
 FILE TYPE:LPF   UNIT   15   STATUS:OLD    
 FORMAT:FORMATTED              ACCESS:SEQUENTIAL          

 OPENING modelface.rch
 FILE TYPE:RCH   UNIT   19   STATUS:OLD    
 FORMAT:FORMATTED              ACCESS:SEQUENTIAL          

 OPENING modelface.oc
 FILE TYPE:OC   UNIT   14   STATUS:OLD    
 FORMAT:FORMATTED              ACCESS:SEQUENTIAL          

 OPENING modelface.pcg
 FILE TYPE:PCG   UNIT   27   STATUS:OLD    
 FORMAT:FORMATTED              ACCESS:SEQUENTIAL          

 OPENING modelface.swi2
 FILE TYPE:SWI2   UNIT   29   STATUS:OLD    
 FORMAT:FORMATTED              ACCESS:SEQUENTIAL          

 OPENING modelface.hob
 FILE TYPE:HOB   UNIT   39   STATUS:OLD    
 FORMAT:FORMATTED              ACCESS:SEQUENTIAL          

 OPENING modelface.hds
 FILE TYPE:DATA(BINARY)   UNIT   51   STATUS:REPLACE
 FORMAT:BINARY                 ACCESS:SEQUENTIAL          

 OPENING modelface.zta
 FILE TYPE:DATA(BINARY)   UNIT   55   STATUS:REPLACE
 FORMAT:BINARY                 ACCESS:SEQUENTIAL          

 OPENING modelface.hob.out
 FILE TYPE:DATA   UNIT    7   STATUS:UNKNOWN
 FORMAT:FORMATTED              ACCESS:SEQUENTIAL          

 BAS -- BASIC PACKAGE, VERSION 7, 5/2/2005 INPUT READ FROM UNIT   13
 
 MODFLOW was compiled using mixed precision
 Precision of REAL variables:           6
 Precision of DOUBLE PRECISION variables:          15

 DISCRETIZATION INPUT DATA READ FROM UNIT   11
 # DIS package for  MODFLOW-2005, generated by Flopy.
    1 LAYERS       100 ROWS       200 COLUMNS
    1 STRESS PERIOD(S) IN SIMULATION
 MODEL TIME UNIT IS DAYS
 MODEL LENGTH UNIT IS METERS
  Confining bed flag for each layer:
   0

                     DELR =   169.000    

                     DELC =   165.000    



           TOP ELEVATION OF LAYER 1
 READING ON UNIT   11 WITH FORMAT: (200E15.6)          

   MODEL LAYER BOTTOM EL. =  -1250.00     FOR LAYER   1


 STRESS PERIOD     LENGTH       TIME STEPS     MULTIPLIER FOR DELT    SS FLAG
 ----------------------------------------------------------------------------
        1         146100.0        400                    1.000         SS

 STEADY-STATE SIMULATION



 
 # BAS6 package for  MODFLOW-2005, generated by Flopy.                           
 THE FREE FORMAT OPTION HAS BEEN SELECTED



                     BOUNDARY ARRAY FOR LAYER   1
 READING ON UNIT   13 WITH FORMAT: (200I10)            

 AQUIFER HEAD WILL BE SET TO  -999.99     AT ALL NO-FLOW NODES (IBOUND=0).



                       INITIAL HEAD FOR LAYER   1
 READING ON UNIT   13 WITH FORMAT: (200E15.6)          
 # OC package for  MODFLOW-2005, generated by Flopy.

 OUTPUT CONTROL IS SPECIFIED ONLY AT TIME STEPS FOR WHICH OUTPUT IS DESIRED
 COMPACT CELL-BY-CELL BUDGET FILES WILL BE WRITTEN
 AUXILIARY DATA WILL BE SAVED IN CELL-BY-CELL BUDGET FILES
 HEAD PRINT FORMAT CODE IS   0    DRAWDOWN PRINT FORMAT CODE IS   0
 HEADS WILL BE SAVED ON UNIT   51    DRAWDOWNS WILL BE SAVED ON UNIT    0

 LPF -- LAYER-PROPERTY FLOW PACKAGE, VERSION 7, 5/2/2005
         INPUT READ FROM UNIT   15
 # LPF package for  MODFLOW-2005, generated by Flopy.
 HEAD AT CELLS THAT CONVERT TO DRY= -1.00000E+30
 No named parameters

   LAYER FLAGS:
 LAYER       LAYTYP        LAYAVG         CHANI        LAYVKA        LAYWET
 ---------------------------------------------------------------------------
    1             0             0     1.000E+00             0             0

   INTERPRETATION OF LAYER FLAGS:
                        INTERBLOCK     HORIZONTAL    DATA IN
         LAYER TYPE   TRANSMISSIVITY   ANISOTROPY   ARRAY VKA   WETTABILITY
 LAYER      (LAYTYP)      (LAYAVG)       (CHANI)      (LAYVKA)      (LAYWET)
 ---------------------------------------------------------------------------
    1      CONFINED      HARMONIC     1.000E+00    VERTICAL K  NON-WETTABLE

 WETTING CAPABILITY IS NOT ACTIVE IN ANY LAYER



              HYD. COND. ALONG ROWS FOR LAYER   1
 READING ON UNIT   15 WITH FORMAT: (200E15.6)          

      VERTICAL HYD. COND. =   10.0000     FOR LAYER   1

 RCH -- RECHARGE PACKAGE, VERSION 7, 5/2/2005 INPUT READ FROM UNIT   19
 # RCH package for  MODFLOW-2005, generated by Flopy.
 No named parameters
 OPTION 3 -- RECHARGE TO HIGHEST ACTIVE NODE IN EACH VERTICAL COLUMN


     0 Recharge parameters

 PCG -- CONJUGATE-GRADIENT SOLUTION PACKAGE, VERSION 7, 5/2/2005
 # PCG package for  MODFLOW-2005, generated by Flopy.
 MAXIMUM OF    100 CALLS OF SOLUTION ROUTINE
 MAXIMUM OF     50 INTERNAL ITERATIONS PER CALL TO SOLUTION ROUTINE
 MATRIX PRECONDITIONING TYPE :    1



                                    SOLUTION BY THE CONJUGATE-GRADIENT METHOD
                                   -------------------------------------------
                    MAXIMUM NUMBER OF CALLS TO PCG ROUTINE =      100
                        MAXIMUM ITERATIONS PER CALL TO PCG =       50
                               MATRIX PRECONDITIONING TYPE =        1
        RELAXATION FACTOR (ONLY USED WITH PRECOND. TYPE 1) =    0.10000E+01
 PARAMETER OF POLYNOMIAL PRECOND. = 2 (2) OR IS CALCULATED :        0
                         HEAD CHANGE CRITERION FOR CLOSURE =    0.10000E-05
                     RESIDUAL CHANGE CRITERION FOR CLOSURE =    0.30000E-02
            PCG HEAD AND RESIDUAL CHANGE PRINTOUT INTERVAL =      999
     PRINTING FROM SOLVER IS LIMITED(1) OR SUPPRESSED (>1) =        3
                            STEADY-STATE DAMPING PARAMETER =    0.10000E+01
                               TRANSIENT DAMPING PARAMETER =    0.10000E+01


 SWI2 -- SWI PACKAGE, VERSION 2.0.0, 07/22/2013
 --------------------------------------------------
 SWI2 INPUT READ FROM UNIT 29


 # SWI2 package for  MODFLOW-2005, generated by Flopy.
 # Dataset 1


 SWI2 DATASET 1
 ----------------------------------------------------
 NUMBER OF SURFACES (NSRF):                         1
 TOTAL NUMBER OF ZONES:                             2
 DENSITY DISTRIBUTION OPTION (ISTRAT):              1
   VARIABLE DENSITY FLOW -- ISTRAT = 0
   STRATIFIED FLOW       -- ISTRAT = 1
 NUMBER OF SWI OBSERVATIONS (NOBS):                 0
 ZETA OUTPUT FILE UNIT NUMBER (ISWIZT):            55
 BUDGET OUTPUT FILE UNIT NUMBER (ISWICB):           0
 OBSERVATION OUTPUT FILE UNIT NUMBER (ISWIOBS):     0
 ----------------------------------------------------
 # Dataset 2a


 SWI2 DATASET 2A
 ----------------------------------------------------
 SOLVER (NSOLVER):                                  1
   SOLVER =                      DIRECT SOLVER (DE4)
 SOLVER PRINTOUT INTERVAL (IPRSOL):               999
 SOLVER OUTPUT FLAG (MUTSOL):                       3
   0 = PRINTING EVERY ITERATION
   1 = LIMITED (TOTAL NUMBER OF ITERATIONS)
   2 = NO PRINTING
   3 = ONLY IF CONVERGENCE FAILS
 ----------------------------------------------------
 # Dataset 3a


 SWI2 DATASET 3A
 ----------------------------------------------------
 MAXIMUM TOE SURFACE SLOPE (TOESLOPE):      0.500E-02
 MAXIMUM TIP SURFACE SLOPE (TIPSLOPE):      0.500E-02
 EXCESS SURFACE SLOPE FRACTION (ALPHA):     0.100    
 MINIMUM ZONE THICKNESS FRACTION (BETA):    0.100    
 ----------------------------------------------------



                             NUZONE
 READING ON UNIT   29 WITH FORMAT: (2E15.6)            



                   ZETA SURFACE  1  FOR LAYER   1
 READING ON UNIT   29 WITH FORMAT: (200E15.6)          

                      SSZ =  0.200000     FOR LAYER   1



                            IZONENR FOR LAYER   1
 READING ON UNIT   29 WITH FORMAT: (200I10)            

 OBS2BAS7 -- HEAD OBSERVATIONS, VERSION 2.0, 2/28/2006
 INPUT READ FROM UNIT  39
 # HOB package for  MODFLOW-2005, generated by Flopy.

 NUMBER OF HEADS....................................:   64
   NUMBER OF MULTILAYER HEADS.......................:    0
   MAXIMUM NUMBER OF LAYERS FOR MULTILAYER HEADS....:    0
 HEAD OBSERVATIONS WILL BE SAVED ON UNIT............:    7
 SIMULATED EQUIVALENT HEAD AT DRY CELLS WILL BE:   -999.000    

 OBSERVED HEAD DATA -- TIME OFFSETS ARE MULTIPLIED BY:   1.0000    

                    REFER.
       OBSERVATION  STRESS    TIME
  OBS#    NAME      PERIOD   OFFSET    OBSERVATION
     1 Obs_0            1    0.000       5.500    
 Observation within a steady-state time step has been moved to the end of the time step.
     2 Obs_1            1    0.000      0.2000    
 Observation within a steady-state time step has been moved to the end of the time step.
     3 Obs_2            1    0.000      0.4000    
 Observation within a steady-state time step has been moved to the end of the time step.
     4 Obs_3            1    0.000      0.3000    
 Observation within a steady-state time step has been moved to the end of the time step.
     5 Obs_4            1    0.000      0.6000    
 Observation within a steady-state time step has been moved to the end of the time step.
     6 Obs_5            1    0.000       2.300    
 Observation within a steady-state time step has been moved to the end of the time step.
     7 Obs_6            1    0.000       2.600    
 Observation within a steady-state time step has been moved to the end of the time step.
     8 Obs_7            1    0.000       3.500    
 Observation within a steady-state time step has been moved to the end of the time step.
     9 Obs_8            1    0.000       1.200    
 Observation within a steady-state time step has been moved to the end of the time step.
    10 Obs_9            1    0.000       3.600    
 Observation within a steady-state time step has been moved to the end of the time step.
    11 Obs_10           1    0.000       1.500    
 Observation within a steady-state time step has been moved to the end of the time step.
    12 Obs_11           1    0.000       1.900    
 Observation within a steady-state time step has been moved to the end of the time step.
    13 Obs_12           1    0.000       1.300    
 Observation within a steady-state time step has been moved to the end of the time step.
    14 Obs_13           1    0.000      0.9000    
 Observation within a steady-state time step has been moved to the end of the time step.
    15 Obs_14           1    0.000       44.70    
 Observation within a steady-state time step has been moved to the end of the time step.
    16 Obs_15           1    0.000       2.600    
 Observation within a steady-state time step has been moved to the end of the time step.
    17 Obs_16           1    0.000       1.700    
 Observation within a steady-state time step has been moved to the end of the time step.
    18 Obs_17           1    0.000       3.000    
 Observation within a steady-state time step has been moved to the end of the time step.
    19 Obs_18           1    0.000       1.800    
 Observation within a steady-state time step has been moved to the end of the time step.
    20 Obs_19           1    0.000       5.900    
 Observation within a steady-state time step has been moved to the end of the time step.
    21 Obs_20           1    0.000       19.20    
 Observation within a steady-state time step has been moved to the end of the time step.
    22 Obs_21           1    0.000       8.000    
 Observation within a steady-state time step has been moved to the end of the time step.
    23 Obs_22           1    0.000       8.200    
 Observation within a steady-state time step has been moved to the end of the time step.
    24 Obs_23           1    0.000       5.750    
 Observation within a steady-state time step has been moved to the end of the time step.
    25 Obs_24           1    0.000       34.20    
 Observation within a steady-state time step has been moved to the end of the time step.
    26 Obs_25           1    0.000       3.200    
 Observation within a steady-state time step has been moved to the end of the time step.
    27 Obs_26           1    0.000       16.50    
 Observation within a steady-state time step has been moved to the end of the time step.
    28 Obs_27           1    0.000       25.40    
 Observation within a steady-state time step has been moved to the end of the time step.
    29 Obs_28           1    0.000       1.800    
 Observation within a steady-state time step has been moved to the end of the time step.
    30 Obs_29           1    0.000       8.800    
 Observation within a steady-state time step has been moved to the end of the time step.
    31 Obs_30           1    0.000      0.8500    
 Observation within a steady-state time step has been moved to the end of the time step.
    32 Obs_31           1    0.000      0.9000    
 Observation within a steady-state time step has been moved to the end of the time step.
    33 Obs_32           1    0.000      0.6000    
 Observation within a steady-state time step has been moved to the end of the time step.
    34 Obs_33           1    0.000       20.30    
 Observation within a steady-state time step has been moved to the end of the time step.
    35 Obs_34           1    0.000       1.800    
 Observation within a steady-state time step has been moved to the end of the time step.
    36 Obs_35           1    0.000       1.933    
 Observation within a steady-state time step has been moved to the end of the time step.
    37 Obs_36           1    0.000      0.3000    
 Observation within a steady-state time step has been moved to the end of the time step.
    38 Obs_37           1    0.000      0.5000    
 Observation within a steady-state time step has been moved to the end of the time step.
    39 Obs_38           1    0.000       1.000    
 Observation within a steady-state time step has been moved to the end of the time step.
    40 Obs_39           1    0.000       62.50    
 Observation within a steady-state time step has been moved to the end of the time step.
    41 Obs_40           1    0.000       15.80    
 Observation within a steady-state time step has been moved to the end of the time step.
    42 Obs_41           1    0.000       1.200    
 Observation within a steady-state time step has been moved to the end of the time step.
    43 Obs_42           1    0.000       7.300    
 Observation within a steady-state time step has been moved to the end of the time step.
    44 Obs_43           1    0.000       7.300    
 Observation within a steady-state time step has been moved to the end of the time step.
    45 Obs_44           1    0.000       9.800    
 Observation within a steady-state time step has been moved to the end of the time step.
    46 Obs_45           1    0.000       16.47    
 Observation within a steady-state time step has been moved to the end of the time step.
    47 Obs_46           1    0.000       1.200    
 Observation within a steady-state time step has been moved to the end of the time step.
    48 Obs_47           1    0.000       3.000    
 Observation within a steady-state time step has been moved to the end of the time step.
    49 Obs_48           1    0.000       6.650    
 Observation within a steady-state time step has been moved to the end of the time step.
    50 Obs_49           1    0.000       2.700    
 Observation within a steady-state time step has been moved to the end of the time step.
    51 Obs_50           1    0.000       6.100    
 Observation within a steady-state time step has been moved to the end of the time step.
    52 Obs_51           1    0.000      0.1000    
 Observation within a steady-state time step has been moved to the end of the time step.
    53 Obs_52           1    0.000       8.100    
 Observation within a steady-state time step has been moved to the end of the time step.
    54 Obs_53           1    0.000       8.200    
 Observation within a steady-state time step has been moved to the end of the time step.
    55 Obs_54           1    0.000       4.300    
 Observation within a steady-state time step has been moved to the end of the time step.
    56 Obs_55           1    0.000       5.567    
 Observation within a steady-state time step has been moved to the end of the time step.
    57 Obs_56           1    0.000       5.500    
 Observation within a steady-state time step has been moved to the end of the time step.
    58 Obs_57           1    0.000       7.300    
 Observation within a steady-state time step has been moved to the end of the time step.
    59 Obs_58           1    0.000       6.000    
 Observation within a steady-state time step has been moved to the end of the time step.
    60 Obs_59           1    0.000       2.700    
 Observation within a steady-state time step has been moved to the end of the time step.
    61 Obs_60           1    0.000       5.300    
 Observation within a steady-state time step has been moved to the end of the time step.
    62 Obs_61           1    0.000       3.100    
 Observation within a steady-state time step has been moved to the end of the time step.
    63 Obs_62           1    0.000       3.000    
 Observation within a steady-state time step has been moved to the end of the time step.
    64 Obs_63           1    0.000       5.700    
 Observation within a steady-state time step has been moved to the end of the time step.

                                                     HEAD CHANGE
                                                      REFERENCE
        OBSERVATION                   ROW     COL    OBSERVATION
  OBS#     NAME       LAY  ROW  COL  OFFSET  OFFSET   (IF > 0)
     1  Obs_0           1   55   22   0.000   0.000        0
     2  Obs_1           1   78   50   0.000   0.000        0
     3  Obs_2           1   81   52   0.000   0.000        0
     4  Obs_3           1   86   52   0.000   0.000        0
     5  Obs_4           1   85   53   0.000   0.000        0
     6  Obs_5           1   71   55   0.000   0.000        0
     7  Obs_6           1   74   55   0.000   0.000        0
     8  Obs_7           1   70   56   0.000   0.000        0
     9  Obs_8           1   77   57   0.000   0.000        0
    10  Obs_9           1   70   59   0.000   0.000        0
    11  Obs_10          1   76   60   0.000   0.000        0
    12  Obs_11          1   79   69   0.000   0.000        0
    13  Obs_12          1   72   71   0.000   0.000        0
    14  Obs_13          1   79   71   0.000   0.000        0
    15  Obs_14          1   64   72   0.000   0.000        0
    16  Obs_15          1   79   72   0.000   0.000        0
    17  Obs_16          1   79   73   0.000   0.000        0
    18  Obs_17          1   63   75   0.000   0.000        0
    19  Obs_18          1   78   75   0.000   0.000        0
    20  Obs_19          1   56   77   0.000   0.000        0
    21  Obs_20          1   60   77   0.000   0.000        0
    22  Obs_21          1   54   78   0.000   0.000        0
    23  Obs_22          1   58   78   0.000   0.000        0
    24  Obs_23          1   59   78   0.000   0.000        0
    25  Obs_24          1   54   79   0.000   0.000        0
    26  Obs_25          1   60   79   0.000   0.000        0
    27  Obs_26          1   52   80   0.000   0.000        0
    28  Obs_27          1   57   80   0.000   0.000        0
    29  Obs_28          1   60   80   0.000   0.000        0
    30  Obs_29          1   59   81   0.000   0.000        0
    31  Obs_30          1   64   81   0.000   0.000        0
    32  Obs_31          1   65   81   0.000   0.000        0
    33  Obs_32          1   84   81   0.000   0.000        0
    34  Obs_33          1   56   82   0.000   0.000        0
    35  Obs_34          1   62   82   0.000   0.000        0
    36  Obs_35          1   64   82   0.000   0.000        0
    37  Obs_36          1   68   85   0.000   0.000        0
    38  Obs_37          1   76   88   0.000   0.000        0
    39  Obs_38          1   63   89   0.000   0.000        0
    40  Obs_39          1   36   96   0.000   0.000        0
    41  Obs_40          1   51   97   0.000   0.000        0
    42  Obs_41          1   29   98   0.000   0.000        0
    43  Obs_42          1   30   98   0.000   0.000        0
    44  Obs_43          1   31   98   0.000   0.000        0
    45  Obs_44          1   32   99   0.000   0.000        0
    46  Obs_45          1   33   99   0.000   0.000        0
    47  Obs_46          1   27  100   0.000   0.000        0
    48  Obs_47          1   29  101   0.000   0.000        0
    49  Obs_48          1   34  107   0.000   0.000        0
    50  Obs_49          1   42  110   0.000   0.000        0
    51  Obs_50          1   41  112   0.000   0.000        0
    52  Obs_51          1   34  114   0.000   0.000        0
    53  Obs_52          1   17  122   0.000   0.000        0
    54  Obs_53          1   17  123   0.000   0.000        0
    55  Obs_54          1   26  127   0.000   0.000        0
    56  Obs_55          1   27  127   0.000   0.000        0
    57  Obs_56          1   27  128   0.000   0.000        0
    58  Obs_57          1   36  133   0.000   0.000        0
    59  Obs_58          1   37  133   0.000   0.000        0
    60  Obs_59          1   19  169   0.000   0.000        0
    61  Obs_60          1   30  174   0.000   0.000        0
    62  Obs_61          1   16  186   0.000   0.000        0
    63  Obs_62          1   15  187   0.000   0.000        0
    64  Obs_63          1   24  188   0.000   0.000        0
1
                            STRESS PERIOD NO.    1, LENGTH =   146100.0    
                            -----------------------------------------------

                              NUMBER OF TIME STEPS =   400

                               MULTIPLIER FOR DELT =     1.000

                            INITIAL TIME STEP SIZE =   365.2500    



                           RECHARGE
 READING ON UNIT   19 WITH FORMAT: (200E15.6)          
 
 SOLVING FOR HEAD 

 NO OUTPUT CONTROL FOR STRESS PERIOD    1   TIME STEP    1
 SOLVING FOR ZETA FOR LAYER     1 ZONE     2

    2487 UPPER PART EQS.      2489 LOWER PART EQS.    BAND WIDTH + 1 =   77
 STRESS PERIOD=  1 TIMESTEP=  1 LAYER=  1 ZONE=  2 ACTIVE CELLS= 4976 NUMBER OF EQUATIONS=    4976
 
 SOLVING FOR HEAD 

 NO OUTPUT CONTROL FOR STRESS PERIOD    1   TIME STEP    2
 SOLVING FOR ZETA FOR LAYER     1 ZONE     2

    2673 UPPER PART EQS.      2674 LOWER PART EQS.    BAND WIDTH + 1 =   79
 STRESS PERIOD=  1 TIMESTEP=  2 LAYER=  1 ZONE=  2 ACTIVE CELLS= 5347 NUMBER OF EQUATIONS=    5347
 
 SOLVING FOR HEAD 

 NO OUTPUT CONTROL FOR STRESS PERIOD    1   TIME STEP    3
 SOLVING FOR ZETA FOR LAYER     1 ZONE     2

    1786 UPPER PART EQS.      1774 LOWER PART EQS.    BAND WIDTH + 1 =   66
 STRESS PERIOD=  1 TIMESTEP=  3 LAYER=  1 ZONE=  2 ACTIVE CELLS= 3560 NUMBER OF EQUATIONS=    3560
 
 SOLVING FOR HEAD 

 NO OUTPUT CONTROL FOR STRESS PERIOD    1   TIME STEP    4
 SOLVING FOR ZETA FOR LAYER     1 ZONE     2

    1969 UPPER PART EQS.      1971 LOWER PART EQS.    BAND WIDTH + 1 =   68
 STRESS PERIOD=  1 TIMESTEP=  4 LAYER=  1 ZONE=  2 ACTIVE CELLS= 3940 NUMBER OF EQUATIONS=    3940
 
 SOLVING FOR HEAD 

 NO OUTPUT CONTROL FOR STRESS PERIOD    1   TIME STEP    5
 SOLVING FOR ZETA FOR LAYER     1 ZONE     2

    2208 UPPER PART EQS.      2173 LOWER PART EQS.    BAND WIDTH + 1 =   71
 STRESS PERIOD=  1 TIMESTEP=  5 LAYER=  1 ZONE=  2 ACTIVE CELLS= 4381 NUMBER OF EQUATIONS=    4381
 
 SOLVING FOR HEAD 

 NO OUTPUT CONTROL FOR STRESS PERIOD    1   TIME STEP    6
 SOLVING FOR ZETA FOR LAYER     1 ZONE     2

    2407 UPPER PART EQS.      2440 LOWER PART EQS.    BAND WIDTH + 1 =   81
 STRESS PERIOD=  1 TIMESTEP=  6 LAYER=  1 ZONE=  2 ACTIVE CELLS= 4847 NUMBER OF EQUATIONS=    4847
 
 SOLVING FOR HEAD 

 NO OUTPUT CONTROL FOR STRESS PERIOD    1   TIME STEP    7
 SOLVING FOR ZETA FOR LAYER     1 ZONE     2

    2478 UPPER PART EQS.      2445 LOWER PART EQS.    BAND WIDTH + 1 =   85
 STRESS PERIOD=  1 TIMESTEP=  7 LAYER=  1 ZONE=  2 ACTIVE CELLS= 4923 NUMBER OF EQUATIONS=    4923
 
 SOLVING FOR HEAD 

 NO OUTPUT CONTROL FOR STRESS PERIOD    1   TIME STEP    8
 SOLVING FOR ZETA FOR LAYER     1 ZONE     2

    2326 UPPER PART EQS.      2342 LOWER PART EQS.    BAND WIDTH + 1 =   92
 STRESS PERIOD=  1 TIMESTEP=  8 LAYER=  1 ZONE=  2 ACTIVE CELLS= 4668 NUMBER OF EQUATIONS=    4668
 
 SOLVING FOR HEAD 

 NO OUTPUT CONTROL FOR STRESS PERIOD    1   TIME STEP    9
 SOLVING FOR ZETA FOR LAYER     1 ZONE     2

    2301 UPPER PART EQS.      2289 LOWER PART EQS.    BAND WIDTH + 1 =  107
 INSUFFICIENT MEMORY FOR DE4 SOLVER:
 MXBW MUST BE AT LEAST  107
 
 SOLVING FOR HEAD 

 NO OUTPUT CONTROL FOR STRESS PERIOD    1   TIME STEP   10
 SOLVING FOR ZETA FOR LAYER     1 ZONE     2

    2751 UPPER PART EQS.      2742 LOWER PART EQS.    BAND WIDTH + 1 =   82
 STRESS PERIOD=  1 TIMESTEP= 10 LAYER=  1 ZONE=  2 ACTIVE CELLS= 5493 NUMBER OF EQUATIONS=    5493
 
 SOLVING FOR HEAD 

 NO OUTPUT CONTROL FOR STRESS PERIOD    1   TIME STEP   11
 SOLVING FOR ZETA FOR LAYER     1 ZONE     2

    1898 UPPER PART EQS.      1913 LOWER PART EQS.    BAND WIDTH + 1 =   79
 STRESS PERIOD=  1 TIMESTEP= 11 LAYER=  1 ZONE=  2 ACTIVE CELLS= 3811 NUMBER OF EQUATIONS=    3811
 
 SOLVING FOR HEAD 

 NO OUTPUT CONTROL FOR STRESS PERIOD    1   TIME STEP   12
 SOLVING FOR ZETA FOR LAYER     1 ZONE     2

    2008 UPPER PART EQS.      2005 LOWER PART EQS.    BAND WIDTH + 1 =   86
 STRESS PERIOD=  1 TIMESTEP= 12 LAYER=  1 ZONE=  2 ACTIVE CELLS= 4013 NUMBER OF EQUATIONS=    4013
 
 SOLVING FOR HEAD 

 NO OUTPUT CONTROL FOR STRESS PERIOD    1   TIME STEP   13
 SOLVING FOR ZETA FOR LAYER     1 ZONE     2

    2077 UPPER PART EQS.      2070 LOWER PART EQS.    BAND WIDTH + 1 =   87
 STRESS PERIOD=  1 TIMESTEP= 13 LAYER=  1 ZONE=  2 ACTIVE CELLS= 4147 NUMBER OF EQUATIONS=    4147
 
 SOLVING FOR HEAD 

 NO OUTPUT CONTROL FOR STRESS PERIOD    1   TIME STEP   14
 SOLVING FOR ZETA FOR LAYER     1 ZONE     2

    2106 UPPER PART EQS.      2115 LOWER PART EQS.    BAND WIDTH + 1 =   97
 STRESS PERIOD=  1 TIMESTEP= 14 LAYER=  1 ZONE=  2 ACTIVE CELLS= 4221 NUMBER OF EQUATIONS=    4221
 
 SOLVING FOR HEAD 

 NO OUTPUT CONTROL FOR STRESS PERIOD    1   TIME STEP   15
 SOLVING FOR ZETA FOR LAYER     1 ZONE     2

    2061 UPPER PART EQS.      1994 LOWER PART EQS.    BAND WIDTH + 1 =  106
 INSUFFICIENT MEMORY FOR DE4 SOLVER:
 MXBW MUST BE AT LEAST  106
 
 SOLVING FOR HEAD 

 NO OUTPUT CONTROL FOR STRESS PERIOD    1   TIME STEP   16
 SOLVING FOR ZETA FOR LAYER     1 ZONE     2

    2429 UPPER PART EQS.      2430 LOWER PART EQS.    BAND WIDTH + 1 =   81
 STRESS PERIOD=  1 TIMESTEP= 16 LAYER=  1 ZONE=  2 ACTIVE CELLS= 4859 NUMBER OF EQUATIONS=    4859
 
 SOLVING FOR HEAD 

 NO OUTPUT CONTROL FOR STRESS PERIOD    1   TIME STEP   17
 SOLVING FOR ZETA FOR LAYER     1 ZONE     2

    2009 UPPER PART EQS.      2061 LOWER PART EQS.    BAND WIDTH + 1 =   94
 STRESS PERIOD=  1 TIMESTEP= 17 LAYER=  1 ZONE=  2 ACTIVE CELLS= 4070 NUMBER OF EQUATIONS=    4070
 
 SOLVING FOR HEAD 

 NO OUTPUT CONTROL FOR STRESS PERIOD    1   TIME STEP   18
 SOLVING FOR ZETA FOR LAYER     1 ZONE     2

    2183 UPPER PART EQS.      2095 LOWER PART EQS.    BAND WIDTH + 1 =  100
 STRESS PERIOD=  1 TIMESTEP= 18 LAYER=  1 ZONE=  2 ACTIVE CELLS= 4278 NUMBER OF EQUATIONS=    4278
 
 SOLVING FOR HEAD 

 NO OUTPUT CONTROL FOR STRESS PERIOD    1   TIME STEP   19
 SOLVING FOR ZETA FOR LAYER     1 ZONE     2

    2011 UPPER PART EQS.      2134 LOWER PART EQS.    BAND WIDTH + 1 =  134
 INSUFFICIENT MEMORY FOR DE4 SOLVER:
 MXBW MUST BE AT LEAST  134
 
 SOLVING FOR HEAD 

 OUTPUT CONTROL FOR STRESS PERIOD    1   TIME STEP   20
    SAVE HEAD FOR ALL LAYERS
    PRINT BUDGET
 SOLVING FOR ZETA FOR LAYER     1 ZONE     2

    2484 UPPER PART EQS.      2462 LOWER PART EQS.    BAND WIDTH + 1 =   98
 STRESS PERIOD=  1 TIMESTEP= 20 LAYER=  1 ZONE=  2 ACTIVE CELLS= 4946 NUMBER OF EQUATIONS=    4946
 UBUDSV SAVING "      ZETASRF  1" ON UNIT 55 AT TIME STEP 20, STRESS PERIOD    1


                      VOLUMETRIC SWI ZONE BUDGET FOR ENTIRE MODEL
                     AT END OF TIME STEP   20 IN STRESS PERIOD   1
                                      ZONE     1
  -----------------------------------------------------------------------------------

        CUMULATIVE VOLUMES      L**3       RATES FOR THIS TIME STEP      L**3/T
        ------------------                 ------------------------

              IN:                                      IN:
              ---                                      ---
             BOUNDARIES =  5374803456.0000            BOUNDARIES =      717492.2500
          CONSTANT HEAD =  1938965504.0000         CONSTANT HEAD =           0.0000
            ZONE CHANGE = 44859428864.0000           ZONE CHANGE =     7458827.0000
       ZONE CHG TIP/TOE =778640752640.0000      ZONE CHG TIP/TOE =    79297944.0000
            ZONE MIXING =           0.0000           ZONE MIXING =           0.0000

               TOTAL IN =830813962240.0000              TOTAL IN =    87474264.0000

             OUT:                                     OUT:
             ----                                     ----
             BOUNDARIES =           0.0000            BOUNDARIES =           0.0000
          CONSTANT HEAD =378812334080.0000         CONSTANT HEAD =    38837096.0000
            ZONE CHANGE =838619234304.0000           ZONE CHANGE =    89892528.0000
       ZONE CHG TIP/TOE =    46889580.0000      ZONE CHG TIP/TOE =       16530.1914
            ZONE MIXING =           0.0000           ZONE MIXING =           0.0000

              TOTAL OUT =       1.2175E+12             TOTAL OUT =   128746152.0000

               IN - OUT =*****************              IN - OUT =   -41271888.0000

    PERCENT DISCREPANCY =         -37.75     PERCENT DISCREPANCY =         -38.18



                      VOLUMETRIC SWI ZONE BUDGET FOR ENTIRE MODEL
                     AT END OF TIME STEP   20 IN STRESS PERIOD   1
                                      ZONE     2
  -----------------------------------------------------------------------------------

        CUMULATIVE VOLUMES      L**3       RATES FOR THIS TIME STEP      L**3/T
        ------------------                 ------------------------

              IN:                                      IN:
              ---                                      ---
             BOUNDARIES =   634986624.0000            BOUNDARIES =      105203.1250
          CONSTANT HEAD =382444994560.0000         CONSTANT HEAD =    39012288.0000
            ZONE CHANGE = 59981615104.0000           ZONE CHANGE =    10594975.0000
       ZONE CHG TIP/TOE =       4.5018E+13      ZONE CHG TIP/TOE =   828520704.0000
            ZONE MIXING =           0.0000           ZONE MIXING =           0.0000

               TOTAL IN =       4.5461E+13              TOTAL IN =   878233152.0000

             OUT:                                     OUT:
             ----                                     ----
             BOUNDARIES =           0.0000            BOUNDARIES =           0.0000
          CONSTANT HEAD = 11581429760.0000         CONSTANT HEAD =      997884.0625
            ZONE CHANGE =       4.5062E+13           ZONE CHANGE =   835963008.0000
       ZONE CHG TIP/TOE =     3280328.5000      ZONE CHG TIP/TOE =         388.6107
            ZONE MIXING =           0.0000           ZONE MIXING =           0.0000

              TOTAL OUT =       4.5074E+13             TOTAL OUT =   836961280.0000

               IN - OUT =386660302848.0000              IN - OUT =    41271872.0000

    PERCENT DISCREPANCY =           0.85     PERCENT DISCREPANCY =           4.81


 HEAD WILL BE SAVED ON UNIT   51 AT END OF TIME STEP   20, STRESS PERIOD    1
1
  VOLUMETRIC BUDGET FOR ENTIRE MODEL AT END OF TIME STEP   20, STRESS PERIOD   1
  ------------------------------------------------------------------------------

     CUMULATIVE VOLUMES      L**3       RATES FOR THIS TIME STEP      L**3/T
     ------------------                 ------------------------

           IN:                                      IN:
           ---                                      ---
             STORAGE =           0.0000               STORAGE =           0.0000
       CONSTANT HEAD =509627498496.0000         CONSTANT HEAD =    28659878.0000
          SWIADDTOCH =532425637888.0000            SWIADDTOCH =   122136592.0000
            RECHARGE =  6009790464.0000              RECHARGE =      822695.3750

            TOTAL IN =       1.0481E+12              TOTAL IN =   151619152.0000

          OUT:                                     OUT:
          ----                                     ----
             STORAGE =           0.0000               STORAGE =           0.0000
       CONSTANT HEAD =563726581760.0000         CONSTANT HEAD =   127481472.0000
          SWIADDTOCH =484336304128.0000            SWIADDTOCH =    24137694.0000
            RECHARGE =           0.0000              RECHARGE =           0.0000

           TOTAL OUT =       1.0481E+12             TOTAL OUT =   151619168.0000

            IN - OUT =       65536.0000              IN - OUT =         -16.0000

 PERCENT DISCREPANCY =           0.00     PERCENT DISCREPANCY =          -0.00






         TIME SUMMARY AT END OF TIME STEP   20 IN STRESS PERIOD    1
                    SECONDS     MINUTES      HOURS       DAYS        YEARS
                    -----------------------------------------------------------
   TIME STEP LENGTH 3.15576E+07 5.25960E+05  8766.0      365.25      1.0000    
 STRESS PERIOD TIME 6.31152E+08 1.05192E+07 1.75320E+05  7305.0      20.000    
         TOTAL TIME 6.31152E+08 1.05192E+07 1.75320E+05  7305.0      20.000    
1
 
 SOLVING FOR HEAD 

 NO OUTPUT CONTROL FOR STRESS PERIOD    1   TIME STEP   21
 SOLVING FOR ZETA FOR LAYER     1 ZONE     2

    2072 UPPER PART EQS.      2061 LOWER PART EQS.    BAND WIDTH + 1 =   79
 STRESS PERIOD=  1 TIMESTEP= 21 LAYER=  1 ZONE=  2 ACTIVE CELLS= 4133 NUMBER OF EQUATIONS=    4133
 
 SOLVING FOR HEAD 

 NO OUTPUT CONTROL FOR STRESS PERIOD    1   TIME STEP   22
 SOLVING FOR ZETA FOR LAYER     1 ZONE     2

    2277 UPPER PART EQS.      2275 LOWER PART EQS.    BAND WIDTH + 1 =   85
 STRESS PERIOD=  1 TIMESTEP= 22 LAYER=  1 ZONE=  2 ACTIVE CELLS= 4552 NUMBER OF EQUATIONS=    4552
 
 SOLVING FOR HEAD 

 NO OUTPUT CONTROL FOR STRESS PERIOD    1   TIME STEP   23
 SOLVING FOR ZETA FOR LAYER     1 ZONE     2

    2177 UPPER PART EQS.      2215 LOWER PART EQS.    BAND WIDTH + 1 =  106
 INSUFFICIENT MEMORY FOR DE4 SOLVER:
 MXBW MUST BE AT LEAST  106
 
 SOLVING FOR HEAD 

 NO OUTPUT CONTROL FOR STRESS PERIOD    1   TIME STEP   24
 SOLVING FOR ZETA FOR LAYER     1 ZONE     2

    2521 UPPER PART EQS.      2556 LOWER PART EQS.    BAND WIDTH + 1 =   84
 STRESS PERIOD=  1 TIMESTEP= 24 LAYER=  1 ZONE=  2 ACTIVE CELLS= 5077 NUMBER OF EQUATIONS=    5077
 
 SOLVING FOR HEAD 

 NO OUTPUT CONTROL FOR STRESS PERIOD    1   TIME STEP   25
 SOLVING FOR ZETA FOR LAYER     1 ZONE     2

    2133 UPPER PART EQS.      2131 LOWER PART EQS.    BAND WIDTH + 1 =   75
 STRESS PERIOD=  1 TIMESTEP= 25 LAYER=  1 ZONE=  2 ACTIVE CELLS= 4264 NUMBER OF EQUATIONS=    4264
 
 SOLVING FOR HEAD 

 NO OUTPUT CONTROL FOR STRESS PERIOD    1   TIME STEP   26
 SOLVING FOR ZETA FOR LAYER     1 ZONE     2

    1962 UPPER PART EQS.      1966 LOWER PART EQS.    BAND WIDTH + 1 =   82
 STRESS PERIOD=  1 TIMESTEP= 26 LAYER=  1 ZONE=  2 ACTIVE CELLS= 3928 NUMBER OF EQUATIONS=    3928
 
 SOLVING FOR HEAD 

 NO OUTPUT CONTROL FOR STRESS PERIOD    1   TIME STEP   27
 SOLVING FOR ZETA FOR LAYER     1 ZONE     2

    1972 UPPER PART EQS.      1960 LOWER PART EQS.    BAND WIDTH + 1 =   89
 STRESS PERIOD=  1 TIMESTEP= 27 LAYER=  1 ZONE=  2 ACTIVE CELLS= 3932 NUMBER OF EQUATIONS=    3932
 
 SOLVING FOR HEAD 

 NO OUTPUT CONTROL FOR STRESS PERIOD    1   TIME STEP   28
 SOLVING FOR ZETA FOR LAYER     1 ZONE     2

    1722 UPPER PART EQS.      1718 LOWER PART EQS.    BAND WIDTH + 1 =   81
 STRESS PERIOD=  1 TIMESTEP= 28 LAYER=  1 ZONE=  2 ACTIVE CELLS= 3440 NUMBER OF EQUATIONS=    3440
 
 SOLVING FOR HEAD 

 NO OUTPUT CONTROL FOR STRESS PERIOD    1   TIME STEP   29
 SOLVING FOR ZETA FOR LAYER     1 ZONE     2

    1609 UPPER PART EQS.      1629 LOWER PART EQS.    BAND WIDTH + 1 =   91
 STRESS PERIOD=  1 TIMESTEP= 29 LAYER=  1 ZONE=  2 ACTIVE CELLS= 3238 NUMBER OF EQUATIONS=    3238
 
 SOLVING FOR HEAD 

 NO OUTPUT CONTROL FOR STRESS PERIOD    1   TIME STEP   30
 SOLVING FOR ZETA FOR LAYER     1 ZONE     2

    1689 UPPER PART EQS.      1672 LOWER PART EQS.    BAND WIDTH + 1 =   98
 STRESS PERIOD=  1 TIMESTEP= 30 LAYER=  1 ZONE=  2 ACTIVE CELLS= 3361 NUMBER OF EQUATIONS=    3361
 
 SOLVING FOR HEAD 

 NO OUTPUT CONTROL FOR STRESS PERIOD    1   TIME STEP   31
 SOLVING FOR ZETA FOR LAYER     1 ZONE     2

    1677 UPPER PART EQS.      1645 LOWER PART EQS.    BAND WIDTH + 1 =  130
 INSUFFICIENT MEMORY FOR DE4 SOLVER:
 MXBW MUST BE AT LEAST  130
 
 SOLVING FOR HEAD 

 NO OUTPUT CONTROL FOR STRESS PERIOD    1   TIME STEP   32
 SOLVING FOR ZETA FOR LAYER     1 ZONE     2

    1965 UPPER PART EQS.      1991 LOWER PART EQS.    BAND WIDTH + 1 =   79
 STRESS PERIOD=  1 TIMESTEP= 32 LAYER=  1 ZONE=  2 ACTIVE CELLS= 3956 NUMBER OF EQUATIONS=    3956
 
 SOLVING FOR HEAD 

 NO OUTPUT CONTROL FOR STRESS PERIOD    1   TIME STEP   33
 SOLVING FOR ZETA FOR LAYER     1 ZONE     2

    1636 UPPER PART EQS.      1616 LOWER PART EQS.    BAND WIDTH + 1 =   65
 STRESS PERIOD=  1 TIMESTEP= 33 LAYER=  1 ZONE=  2 ACTIVE CELLS= 3252 NUMBER OF EQUATIONS=    3252
 
 SOLVING FOR HEAD 

 NO OUTPUT CONTROL FOR STRESS PERIOD    1   TIME STEP   34
 SOLVING FOR ZETA FOR LAYER     1 ZONE     2

    1712 UPPER PART EQS.      1727 LOWER PART EQS.    BAND WIDTH + 1 =   69
 STRESS PERIOD=  1 TIMESTEP= 34 LAYER=  1 ZONE=  2 ACTIVE CELLS= 3439 NUMBER OF EQUATIONS=    3439
 
 SOLVING FOR HEAD 

 NO OUTPUT CONTROL FOR STRESS PERIOD    1   TIME STEP   35
 SOLVING FOR ZETA FOR LAYER     1 ZONE     2

    1855 UPPER PART EQS.      1846 LOWER PART EQS.    BAND WIDTH + 1 =   71
 STRESS PERIOD=  1 TIMESTEP= 35 LAYER=  1 ZONE=  2 ACTIVE CELLS= 3701 NUMBER OF EQUATIONS=    3701
 
 SOLVING FOR HEAD 

 NO OUTPUT CONTROL FOR STRESS PERIOD    1   TIME STEP   36
 SOLVING FOR ZETA FOR LAYER     1 ZONE     2

    1908 UPPER PART EQS.      1900 LOWER PART EQS.    BAND WIDTH + 1 =   74
 STRESS PERIOD=  1 TIMESTEP= 36 LAYER=  1 ZONE=  2 ACTIVE CELLS= 3808 NUMBER OF EQUATIONS=    3808
 
 SOLVING FOR HEAD 

 NO OUTPUT CONTROL FOR STRESS PERIOD    1   TIME STEP   37
 SOLVING FOR ZETA FOR LAYER     1 ZONE     2

    1843 UPPER PART EQS.      1859 LOWER PART EQS.    BAND WIDTH + 1 =   82
 STRESS PERIOD=  1 TIMESTEP= 37 LAYER=  1 ZONE=  2 ACTIVE CELLS= 3702 NUMBER OF EQUATIONS=    3702
 
 SOLVING FOR HEAD 

 NO OUTPUT CONTROL FOR STRESS PERIOD    1   TIME STEP   38
 SOLVING FOR ZETA FOR LAYER     1 ZONE     2

    1871 UPPER PART EQS.      1823 LOWER PART EQS.    BAND WIDTH + 1 =   95
 STRESS PERIOD=  1 TIMESTEP= 38 LAYER=  1 ZONE=  2 ACTIVE CELLS= 3694 NUMBER OF EQUATIONS=    3694
 
 SOLVING FOR HEAD 

 NO OUTPUT CONTROL FOR STRESS PERIOD    1   TIME STEP   39
 SOLVING FOR ZETA FOR LAYER     1 ZONE     2

    1746 UPPER PART EQS.      1838 LOWER PART EQS.    BAND WIDTH + 1 =  133
 INSUFFICIENT MEMORY FOR DE4 SOLVER:
 MXBW MUST BE AT LEAST  133
 
 SOLVING FOR HEAD 

 OUTPUT CONTROL FOR STRESS PERIOD    1   TIME STEP   40
    SAVE HEAD FOR ALL LAYERS
    PRINT BUDGET
 SOLVING FOR ZETA FOR LAYER     1 ZONE     2

    2166 UPPER PART EQS.      2192 LOWER PART EQS.    BAND WIDTH + 1 =   76
 STRESS PERIOD=  1 TIMESTEP= 40 LAYER=  1 ZONE=  2 ACTIVE CELLS= 4358 NUMBER OF EQUATIONS=    4358
 UBUDSV SAVING "      ZETASRF  1" ON UNIT 55 AT TIME STEP 40, STRESS PERIOD    1


                      VOLUMETRIC SWI ZONE BUDGET FOR ENTIRE MODEL
                     AT END OF TIME STEP   40 IN STRESS PERIOD   1
                                      ZONE     1
  -----------------------------------------------------------------------------------

        CUMULATIVE VOLUMES      L**3       RATES FOR THIS TIME STEP      L**3/T
        ------------------                 ------------------------

              IN:                                      IN:
              ---                                      ---
             BOUNDARIES = 10013501440.0000            BOUNDARIES =      629307.3750
          CONSTANT HEAD =  3830535936.0000         CONSTANT HEAD =           0.0000
            ZONE CHANGE = 86291685376.0000           ZONE CHANGE =     9755311.0000
       ZONE CHG TIP/TOE =       1.1989E+12      ZONE CHG TIP/TOE =    25838472.0000
            ZONE MIXING =           0.0000           ZONE MIXING =           0.0000

               TOTAL IN =       1.2990E+12              TOTAL IN =    36223088.0000

             OUT:                                     OUT:
             ----                                     ----
             BOUNDARIES =           0.0000            BOUNDARIES =           0.0000
          CONSTANT HEAD =595123109888.0000         CONSTANT HEAD =    52864464.0000
            ZONE CHANGE =       1.2917E+12           ZONE CHANGE =    30469936.0000
       ZONE CHG TIP/TOE =   134853120.0000      ZONE CHG TIP/TOE =        2426.7502
            ZONE MIXING =           0.0000           ZONE MIXING =           0.0000

              TOTAL OUT =       1.8869E+12             TOTAL OUT =    83336824.0000

               IN - OUT =*****************              IN - OUT =   -47113736.0000

    PERCENT DISCREPANCY =         -36.91     PERCENT DISCREPANCY =         -78.81



                      VOLUMETRIC SWI ZONE BUDGET FOR ENTIRE MODEL
                     AT END OF TIME STEP   40 IN STRESS PERIOD   1
                                      ZONE     2
  -----------------------------------------------------------------------------------

        CUMULATIVE VOLUMES      L**3       RATES FOR THIS TIME STEP      L**3/T
        ------------------                 ------------------------

              IN:                                      IN:
              ---                                      ---
             BOUNDARIES =  2006078336.0000            BOUNDARIES =      193388.0000
          CONSTANT HEAD =612901847040.0000         CONSTANT HEAD =    53697540.0000
            ZONE CHANGE = 92836315136.0000           ZONE CHANGE =     4631856.0000
       ZONE CHG TIP/TOE =       8.5600E+13      ZONE CHG TIP/TOE =  1362122752.0000
            ZONE MIXING =           0.0000           ZONE MIXING =           0.0000

               TOTAL IN =       8.6308E+13              TOTAL IN =  1420645504.0000

             OUT:                                     OUT:
             ----                                     ----
             BOUNDARIES =           0.0000            BOUNDARIES =           0.0000
          CONSTANT HEAD = 33628987392.0000         CONSTANT HEAD =     1655768.3750
            ZONE CHANGE =       8.5687E+13           ZONE CHANGE =  1371875712.0000
       ZONE CHG TIP/TOE =     6247877.0000      ZONE CHG TIP/TOE =         393.5051
            ZONE MIXING =           0.0000           ZONE MIXING =           0.0000

              TOTAL OUT =       8.5720E+13             TOTAL OUT =  1373531904.0000

               IN - OUT =587940757504.0000              IN - OUT =    47113600.0000

    PERCENT DISCREPANCY =           0.68     PERCENT DISCREPANCY =           3.37


 HEAD WILL BE SAVED ON UNIT   51 AT END OF TIME STEP   40, STRESS PERIOD    1
1
  VOLUMETRIC BUDGET FOR ENTIRE MODEL AT END OF TIME STEP   40, STRESS PERIOD   1
  ------------------------------------------------------------------------------

     CUMULATIVE VOLUMES      L**3       RATES FOR THIS TIME STEP      L**3/T
     ------------------                 ------------------------

           IN:                                      IN:
           ---                                      ---
             STORAGE =           0.0000               STORAGE =           0.0000
       CONSTANT HEAD =933172477952.0000         CONSTANT HEAD =    60153728.0000
          SWIADDTOCH =920238751744.0000            SWIADDTOCH =    57928328.0000
            RECHARGE = 12019585024.0000              RECHARGE =      822695.3750

            TOTAL IN =       1.8654E+12              TOTAL IN =   118904752.0000

          OUT:                                     OUT:
          ----                                     ----
             STORAGE =           0.0000               STORAGE =           0.0000
       CONSTANT HEAD =968069480448.0000         CONSTANT HEAD =    62819124.0000
          SWIADDTOCH =897360986112.0000            SWIADDTOCH =    56085624.0000
            RECHARGE =           0.0000              RECHARGE =           0.0000

           TOTAL OUT =       1.8654E+12             TOTAL OUT =   118904752.0000

            IN - OUT =      393216.0000              IN - OUT =           0.0000

 PERCENT DISCREPANCY =           0.00     PERCENT DISCREPANCY =           0.00






         TIME SUMMARY AT END OF TIME STEP   40 IN STRESS PERIOD    1
                    SECONDS     MINUTES      HOURS       DAYS        YEARS
                    -----------------------------------------------------------
   TIME STEP LENGTH 3.15576E+07 5.25960E+05  8766.0      365.25      1.0000    
 STRESS PERIOD TIME 1.26230E+09 2.10384E+07 3.50640E+05  14610.      40.000    
         TOTAL TIME 1.26230E+09 2.10384E+07 3.50640E+05  14610.      40.000    
1
 
 SOLVING FOR HEAD 

 NO OUTPUT CONTROL FOR STRESS PERIOD    1   TIME STEP   41
 SOLVING FOR ZETA FOR LAYER     1 ZONE     2

    1767 UPPER PART EQS.      1745 LOWER PART EQS.    BAND WIDTH + 1 =   68
 STRESS PERIOD=  1 TIMESTEP= 41 LAYER=  1 ZONE=  2 ACTIVE CELLS= 3512 NUMBER OF EQUATIONS=    3512
 
 SOLVING FOR HEAD 

 NO OUTPUT CONTROL FOR STRESS PERIOD    1   TIME STEP   42
 SOLVING FOR ZETA FOR LAYER     1 ZONE     2

    1764 UPPER PART EQS.      1752 LOWER PART EQS.    BAND WIDTH + 1 =   75
 STRESS PERIOD=  1 TIMESTEP= 42 LAYER=  1 ZONE=  2 ACTIVE CELLS= 3516 NUMBER OF EQUATIONS=    3516
 
 SOLVING FOR HEAD 

 NO OUTPUT CONTROL FOR STRESS PERIOD    1   TIME STEP   43
 SOLVING FOR ZETA FOR LAYER     1 ZONE     2

    1842 UPPER PART EQS.      1871 LOWER PART EQS.    BAND WIDTH + 1 =   87
 STRESS PERIOD=  1 TIMESTEP= 43 LAYER=  1 ZONE=  2 ACTIVE CELLS= 3713 NUMBER OF EQUATIONS=    3713
 
 SOLVING FOR HEAD 

 NO OUTPUT CONTROL FOR STRESS PERIOD    1   TIME STEP   44
 SOLVING FOR ZETA FOR LAYER     1 ZONE     2

    1864 UPPER PART EQS.      1839 LOWER PART EQS.    BAND WIDTH + 1 =   91
 STRESS PERIOD=  1 TIMESTEP= 44 LAYER=  1 ZONE=  2 ACTIVE CELLS= 3703 NUMBER OF EQUATIONS=    3703
 
 SOLVING FOR HEAD 

 NO OUTPUT CONTROL FOR STRESS PERIOD    1   TIME STEP   45
 SOLVING FOR ZETA FOR LAYER     1 ZONE     2

    1878 UPPER PART EQS.      1898 LOWER PART EQS.    BAND WIDTH + 1 =   97
 STRESS PERIOD=  1 TIMESTEP= 45 LAYER=  1 ZONE=  2 ACTIVE CELLS= 3776 NUMBER OF EQUATIONS=    3776
 
 SOLVING FOR HEAD 

 NO OUTPUT CONTROL FOR STRESS PERIOD    1   TIME STEP   46
 SOLVING FOR ZETA FOR LAYER     1 ZONE     2

    1827 UPPER PART EQS.      1830 LOWER PART EQS.    BAND WIDTH + 1 =   99
 STRESS PERIOD=  1 TIMESTEP= 46 LAYER=  1 ZONE=  2 ACTIVE CELLS= 3657 NUMBER OF EQUATIONS=    3657
 
 SOLVING FOR HEAD 

 NO OUTPUT CONTROL FOR STRESS PERIOD    1   TIME STEP   47
 SOLVING FOR ZETA FOR LAYER     1 ZONE     2

    1744 UPPER PART EQS.      1764 LOWER PART EQS.    BAND WIDTH + 1 =   97
 STRESS PERIOD=  1 TIMESTEP= 47 LAYER=  1 ZONE=  2 ACTIVE CELLS= 3508 NUMBER OF EQUATIONS=    3508
 
 SOLVING FOR HEAD 

 NO OUTPUT CONTROL FOR STRESS PERIOD    1   TIME STEP   48
 SOLVING FOR ZETA FOR LAYER     1 ZONE     2

    1785 UPPER PART EQS.      1775 LOWER PART EQS.    BAND WIDTH + 1 =  103
 STRESS PERIOD=  1 TIMESTEP= 48 LAYER=  1 ZONE=  2 ACTIVE CELLS= 3560 NUMBER OF EQUATIONS=    3560
 
 SOLVING FOR HEAD 

 NO OUTPUT CONTROL FOR STRESS PERIOD    1   TIME STEP   49
 SOLVING FOR ZETA FOR LAYER     1 ZONE     2

    1774 UPPER PART EQS.      1803 LOWER PART EQS.    BAND WIDTH + 1 =   96
 STRESS PERIOD=  1 TIMESTEP= 49 LAYER=  1 ZONE=  2 ACTIVE CELLS= 3577 NUMBER OF EQUATIONS=    3577
 
 SOLVING FOR HEAD 

 NO OUTPUT CONTROL FOR STRESS PERIOD    1   TIME STEP   50
 SOLVING FOR ZETA FOR LAYER     1 ZONE     2

    1776 UPPER PART EQS.      1734 LOWER PART EQS.    BAND WIDTH + 1 =  110
 INSUFFICIENT MEMORY FOR DE4 SOLVER:
 MXBW MUST BE AT LEAST  110
 
 SOLVING FOR HEAD 

 NO OUTPUT CONTROL FOR STRESS PERIOD    1   TIME STEP   51
 SOLVING FOR ZETA FOR LAYER     1 ZONE     2

    2040 UPPER PART EQS.      2065 LOWER PART EQS.    BAND WIDTH + 1 =   87
 STRESS PERIOD=  1 TIMESTEP= 51 LAYER=  1 ZONE=  2 ACTIVE CELLS= 4105 NUMBER OF EQUATIONS=    4105
 
 SOLVING FOR HEAD 

 NO OUTPUT CONTROL FOR STRESS PERIOD    1   TIME STEP   52
 SOLVING FOR ZETA FOR LAYER     1 ZONE     2

    1546 UPPER PART EQS.      1545 LOWER PART EQS.    BAND WIDTH + 1 =   67
 STRESS PERIOD=  1 TIMESTEP= 52 LAYER=  1 ZONE=  2 ACTIVE CELLS= 3091 NUMBER OF EQUATIONS=    3091
 
 SOLVING FOR HEAD 

 NO OUTPUT CONTROL FOR STRESS PERIOD    1   TIME STEP   53
 SOLVING FOR ZETA FOR LAYER     1 ZONE     2

    1690 UPPER PART EQS.      1676 LOWER PART EQS.    BAND WIDTH + 1 =   67
 STRESS PERIOD=  1 TIMESTEP= 53 LAYER=  1 ZONE=  2 ACTIVE CELLS= 3366 NUMBER OF EQUATIONS=    3366
 
 SOLVING FOR HEAD 

 NO OUTPUT CONTROL FOR STRESS PERIOD    1   TIME STEP   54
 SOLVING FOR ZETA FOR LAYER     1 ZONE     2

    1760 UPPER PART EQS.      1764 LOWER PART EQS.    BAND WIDTH + 1 =   71
 STRESS PERIOD=  1 TIMESTEP= 54 LAYER=  1 ZONE=  2 ACTIVE CELLS= 3524 NUMBER OF EQUATIONS=    3524
 
 SOLVING FOR HEAD 

 NO OUTPUT CONTROL FOR STRESS PERIOD    1   TIME STEP   55
 SOLVING FOR ZETA FOR LAYER     1 ZONE     2

    1778 UPPER PART EQS.      1786 LOWER PART EQS.    BAND WIDTH + 1 =   74
 STRESS PERIOD=  1 TIMESTEP= 55 LAYER=  1 ZONE=  2 ACTIVE CELLS= 3564 NUMBER OF EQUATIONS=    3564
 
 SOLVING FOR HEAD 

 NO OUTPUT CONTROL FOR STRESS PERIOD    1   TIME STEP   56
 SOLVING FOR ZETA FOR LAYER     1 ZONE     2

    1670 UPPER PART EQS.      1659 LOWER PART EQS.    BAND WIDTH + 1 =   78
 STRESS PERIOD=  1 TIMESTEP= 56 LAYER=  1 ZONE=  2 ACTIVE CELLS= 3329 NUMBER OF EQUATIONS=    3329
 
 SOLVING FOR HEAD 

 NO OUTPUT CONTROL FOR STRESS PERIOD    1   TIME STEP   57
 SOLVING FOR ZETA FOR LAYER     1 ZONE     2

    1669 UPPER PART EQS.      1699 LOWER PART EQS.    BAND WIDTH + 1 =   71
 STRESS PERIOD=  1 TIMESTEP= 57 LAYER=  1 ZONE=  2 ACTIVE CELLS= 3368 NUMBER OF EQUATIONS=    3368
 
 SOLVING FOR HEAD 

 NO OUTPUT CONTROL FOR STRESS PERIOD    1   TIME STEP   58
 SOLVING FOR ZETA FOR LAYER     1 ZONE     2

    1799 UPPER PART EQS.      1766 LOWER PART EQS.    BAND WIDTH + 1 =   77
 STRESS PERIOD=  1 TIMESTEP= 58 LAYER=  1 ZONE=  2 ACTIVE CELLS= 3565 NUMBER OF EQUATIONS=    3565
 
 SOLVING FOR HEAD 

 NO OUTPUT CONTROL FOR STRESS PERIOD    1   TIME STEP   59
 SOLVING FOR ZETA FOR LAYER     1 ZONE     2

    1628 UPPER PART EQS.      1714 LOWER PART EQS.    BAND WIDTH + 1 =   86
 STRESS PERIOD=  1 TIMESTEP= 59 LAYER=  1 ZONE=  2 ACTIVE CELLS= 3342 NUMBER OF EQUATIONS=    3342
 
 SOLVING FOR HEAD 

 OUTPUT CONTROL FOR STRESS PERIOD    1   TIME STEP   60
    SAVE HEAD FOR ALL LAYERS
    PRINT BUDGET
 SOLVING FOR ZETA FOR LAYER     1 ZONE     2

    1724 UPPER PART EQS.      1642 LOWER PART EQS.    BAND WIDTH + 1 =   91
 STRESS PERIOD=  1 TIMESTEP= 60 LAYER=  1 ZONE=  2 ACTIVE CELLS= 3366 NUMBER OF EQUATIONS=    3366
 UBUDSV SAVING "      ZETASRF  1" ON UNIT 55 AT TIME STEP 60, STRESS PERIOD    1


                      VOLUMETRIC SWI ZONE BUDGET FOR ENTIRE MODEL
                     AT END OF TIME STEP   60 IN STRESS PERIOD   1
                                      ZONE     1
  -----------------------------------------------------------------------------------

        CUMULATIVE VOLUMES      L**3       RATES FOR THIS TIME STEP      L**3/T
        ------------------                 ------------------------

              IN:                                      IN:
              ---                                      ---
             BOUNDARIES = 14507041792.0000            BOUNDARIES =      572385.3125
          CONSTANT HEAD = 12588136448.0000         CONSTANT HEAD =     3925232.2500
            ZONE CHANGE =118706855936.0000           ZONE CHANGE =     4420046.0000
       ZONE CHG TIP/TOE =       1.6181E+12      ZONE CHG TIP/TOE =   104040512.0000
            ZONE MIXING =           0.0000           ZONE MIXING =           0.0000

               TOTAL IN =       1.7639E+12              TOTAL IN =   112958176.0000

             OUT:                                     OUT:
             ----                                     ----
             BOUNDARIES =           0.0000            BOUNDARIES =           0.0000
          CONSTANT HEAD =765979656192.0000         CONSTANT HEAD =    28820204.0000
            ZONE CHANGE =       1.7446E+12           ZONE CHANGE =   109115720.0000
       ZONE CHG TIP/TOE =   208914656.0000      ZONE CHG TIP/TOE =        6069.3457
            ZONE MIXING =           0.0000           ZONE MIXING =           0.0000

              TOTAL OUT =       2.5108E+12             TOTAL OUT =   137941984.0000

               IN - OUT =*****************              IN - OUT =   -24983808.0000

    PERCENT DISCREPANCY =         -34.95     PERCENT DISCREPANCY =         -19.92



                      VOLUMETRIC SWI ZONE BUDGET FOR ENTIRE MODEL
                     AT END OF TIME STEP   60 IN STRESS PERIOD   1
                                      ZONE     2
  -----------------------------------------------------------------------------------

        CUMULATIVE VOLUMES      L**3       RATES FOR THIS TIME STEP      L**3/T
        ------------------                 ------------------------

              IN:                                      IN:
              ---                                      ---
             BOUNDARIES =  3522326528.0000            BOUNDARIES =      250310.0625
          CONSTANT HEAD =796251258880.0000         CONSTANT HEAD =    30131816.0000
            ZONE CHANGE =126519803904.0000           ZONE CHANGE =     5075559.5000
       ZONE CHG TIP/TOE =       1.3324E+14      ZONE CHG TIP/TOE =  8391289856.0000
            ZONE MIXING =           0.0000           ZONE MIXING =           0.0000

               TOTAL IN =       1.3417E+14              TOTAL IN =  8426747392.0000

             OUT:                                     OUT:
             ----                                     ----
             BOUNDARIES =           0.0000            BOUNDARIES =           0.0000
          CONSTANT HEAD = 60888952832.0000         CONSTANT HEAD =     6059538.0000
            ZONE CHANGE =       1.3336E+14           ZONE CHANGE =  8395703808.0000
       ZONE CHG TIP/TOE =     8770121.0000      ZONE CHG TIP/TOE =         349.5067
            ZONE MIXING =           0.0000           ZONE MIXING =           0.0000

              TOTAL OUT =       1.3342E+14             TOTAL OUT =  8401763840.0000

               IN - OUT =746896490496.0000              IN - OUT =    24983552.0000

    PERCENT DISCREPANCY =           0.56     PERCENT DISCREPANCY =           0.30


 HEAD WILL BE SAVED ON UNIT   51 AT END OF TIME STEP   60, STRESS PERIOD    1
1
  VOLUMETRIC BUDGET FOR ENTIRE MODEL AT END OF TIME STEP   60, STRESS PERIOD   1
  ------------------------------------------------------------------------------

     CUMULATIVE VOLUMES      L**3       RATES FOR THIS TIME STEP      L**3/T
     ------------------                 ------------------------

           IN:                                      IN:
           ---                                      ---
             STORAGE =           0.0000               STORAGE =           0.0000
       CONSTANT HEAD =       1.2974E+12         CONSTANT HEAD =    64567348.0000
          SWIADDTOCH =       1.0585E+12            SWIADDTOCH =    27016280.0000
            RECHARGE = 18029377536.0000              RECHARGE =      822695.3750

            TOTAL IN =       2.3739E+12              TOTAL IN =    92406328.0000

          OUT:                                     OUT:
          ----                                     ----
             STORAGE =           0.0000               STORAGE =           0.0000
       CONSTANT HEAD =       1.1197E+12         CONSTANT HEAD =    28425278.0000
          SWIADDTOCH =       1.2542E+12            SWIADDTOCH =    63981044.0000
            RECHARGE =           0.0000              RECHARGE =           0.0000

           TOTAL OUT =       2.3739E+12             TOTAL OUT =    92406320.0000

            IN - OUT =      262144.0000              IN - OUT =           8.0000

 PERCENT DISCREPANCY =           0.00     PERCENT DISCREPANCY =           0.00






         TIME SUMMARY AT END OF TIME STEP   60 IN STRESS PERIOD    1
                    SECONDS     MINUTES      HOURS       DAYS        YEARS
                    -----------------------------------------------------------
   TIME STEP LENGTH 3.15576E+07 5.25960E+05  8766.0      365.25      1.0000    
 STRESS PERIOD TIME 1.89346E+09 3.15576E+07 5.25960E+05  21915.      60.000    
         TOTAL TIME 1.89346E+09 3.15576E+07 5.25960E+05  21915.      60.000    
1
 
 SOLVING FOR HEAD 

 NO OUTPUT CONTROL FOR STRESS PERIOD    1   TIME STEP   61
 SOLVING FOR ZETA FOR LAYER     1 ZONE     2

    1707 UPPER PART EQS.      1799 LOWER PART EQS.    BAND WIDTH + 1 =   97
 STRESS PERIOD=  1 TIMESTEP= 61 LAYER=  1 ZONE=  2 ACTIVE CELLS= 3506 NUMBER OF EQUATIONS=    3506
 
 SOLVING FOR HEAD 

 NO OUTPUT CONTROL FOR STRESS PERIOD    1   TIME STEP   62
 SOLVING FOR ZETA FOR LAYER     1 ZONE     2

    1644 UPPER PART EQS.      1570 LOWER PART EQS.    BAND WIDTH + 1 =   78
 STRESS PERIOD=  1 TIMESTEP= 62 LAYER=  1 ZONE=  2 ACTIVE CELLS= 3214 NUMBER OF EQUATIONS=    3214
 
 SOLVING FOR HEAD 

 NO OUTPUT CONTROL FOR STRESS PERIOD    1   TIME STEP   63
 SOLVING FOR ZETA FOR LAYER     1 ZONE     2

    1618 UPPER PART EQS.      1703 LOWER PART EQS.    BAND WIDTH + 1 =  107
 INSUFFICIENT MEMORY FOR DE4 SOLVER:
 MXBW MUST BE AT LEAST  107
 
 SOLVING FOR HEAD 

 NO OUTPUT CONTROL FOR STRESS PERIOD    1   TIME STEP   64
 SOLVING FOR ZETA FOR LAYER     1 ZONE     2

    1961 UPPER PART EQS.      1941 LOWER PART EQS.    BAND WIDTH + 1 =   73
 STRESS PERIOD=  1 TIMESTEP= 64 LAYER=  1 ZONE=  2 ACTIVE CELLS= 3902 NUMBER OF EQUATIONS=    3902
 
 SOLVING FOR HEAD 

 NO OUTPUT CONTROL FOR STRESS PERIOD    1   TIME STEP   65
 SOLVING FOR ZETA FOR LAYER     1 ZONE     2

    1575 UPPER PART EQS.      1597 LOWER PART EQS.    BAND WIDTH + 1 =   72
 STRESS PERIOD=  1 TIMESTEP= 65 LAYER=  1 ZONE=  2 ACTIVE CELLS= 3172 NUMBER OF EQUATIONS=    3172
 
 SOLVING FOR HEAD 

 NO OUTPUT CONTROL FOR STRESS PERIOD    1   TIME STEP   66
 SOLVING FOR ZETA FOR LAYER     1 ZONE     2

    1621 UPPER PART EQS.      1554 LOWER PART EQS.    BAND WIDTH + 1 =   94
 STRESS PERIOD=  1 TIMESTEP= 66 LAYER=  1 ZONE=  2 ACTIVE CELLS= 3175 NUMBER OF EQUATIONS=    3175
 
 SOLVING FOR HEAD 

 NO OUTPUT CONTROL FOR STRESS PERIOD    1   TIME STEP   67
 SOLVING FOR ZETA FOR LAYER     1 ZONE     2

    1603 UPPER PART EQS.      1677 LOWER PART EQS.    BAND WIDTH + 1 =   96
 STRESS PERIOD=  1 TIMESTEP= 67 LAYER=  1 ZONE=  2 ACTIVE CELLS= 3280 NUMBER OF EQUATIONS=    3280
 
 SOLVING FOR HEAD 

 NO OUTPUT CONTROL FOR STRESS PERIOD    1   TIME STEP   68
 SOLVING FOR ZETA FOR LAYER     1 ZONE     2

    1678 UPPER PART EQS.      1644 LOWER PART EQS.    BAND WIDTH + 1 =   91
 STRESS PERIOD=  1 TIMESTEP= 68 LAYER=  1 ZONE=  2 ACTIVE CELLS= 3322 NUMBER OF EQUATIONS=    3322
 
 SOLVING FOR HEAD 

 NO OUTPUT CONTROL FOR STRESS PERIOD    1   TIME STEP   69
 SOLVING FOR ZETA FOR LAYER     1 ZONE     2

    1572 UPPER PART EQS.      1594 LOWER PART EQS.    BAND WIDTH + 1 =   89
 STRESS PERIOD=  1 TIMESTEP= 69 LAYER=  1 ZONE=  2 ACTIVE CELLS= 3166 NUMBER OF EQUATIONS=    3166
 
 SOLVING FOR HEAD 

 NO OUTPUT CONTROL FOR STRESS PERIOD    1   TIME STEP   70
 SOLVING FOR ZETA FOR LAYER     1 ZONE     2

    1474 UPPER PART EQS.      1483 LOWER PART EQS.    BAND WIDTH + 1 =   83
 STRESS PERIOD=  1 TIMESTEP= 70 LAYER=  1 ZONE=  2 ACTIVE CELLS= 2957 NUMBER OF EQUATIONS=    2957
 
 SOLVING FOR HEAD 

 NO OUTPUT CONTROL FOR STRESS PERIOD    1   TIME STEP   71
 SOLVING FOR ZETA FOR LAYER     1 ZONE     2

    1427 UPPER PART EQS.      1445 LOWER PART EQS.    BAND WIDTH + 1 =   84
 STRESS PERIOD=  1 TIMESTEP= 71 LAYER=  1 ZONE=  2 ACTIVE CELLS= 2872 NUMBER OF EQUATIONS=    2872
 
 SOLVING FOR HEAD 

 NO OUTPUT CONTROL FOR STRESS PERIOD    1   TIME STEP   72
 SOLVING FOR ZETA FOR LAYER     1 ZONE     2

    1528 UPPER PART EQS.      1475 LOWER PART EQS.    BAND WIDTH + 1 =  115
 INSUFFICIENT MEMORY FOR DE4 SOLVER:
 MXBW MUST BE AT LEAST  115
 
 SOLVING FOR HEAD 

 NO OUTPUT CONTROL FOR STRESS PERIOD    1   TIME STEP   73
 SOLVING FOR ZETA FOR LAYER     1 ZONE     2

    1752 UPPER PART EQS.      1795 LOWER PART EQS.    BAND WIDTH + 1 =   69
 STRESS PERIOD=  1 TIMESTEP= 73 LAYER=  1 ZONE=  2 ACTIVE CELLS= 3547 NUMBER OF EQUATIONS=    3547
 
 SOLVING FOR HEAD 

 NO OUTPUT CONTROL FOR STRESS PERIOD    1   TIME STEP   74
 SOLVING FOR ZETA FOR LAYER     1 ZONE     2

    1460 UPPER PART EQS.      1470 LOWER PART EQS.    BAND WIDTH + 1 =   68
 STRESS PERIOD=  1 TIMESTEP= 74 LAYER=  1 ZONE=  2 ACTIVE CELLS= 2930 NUMBER OF EQUATIONS=    2930
 
 SOLVING FOR HEAD 

 NO OUTPUT CONTROL FOR STRESS PERIOD    1   TIME STEP   75
 SOLVING FOR ZETA FOR LAYER     1 ZONE     2

    1520 UPPER PART EQS.      1542 LOWER PART EQS.    BAND WIDTH + 1 =   74
 STRESS PERIOD=  1 TIMESTEP= 75 LAYER=  1 ZONE=  2 ACTIVE CELLS= 3062 NUMBER OF EQUATIONS=    3062
 
 SOLVING FOR HEAD 

 NO OUTPUT CONTROL FOR STRESS PERIOD    1   TIME STEP   76
 SOLVING FOR ZETA FOR LAYER     1 ZONE     2

    1580 UPPER PART EQS.      1526 LOWER PART EQS.    BAND WIDTH + 1 =   96
 STRESS PERIOD=  1 TIMESTEP= 76 LAYER=  1 ZONE=  2 ACTIVE CELLS= 3106 NUMBER OF EQUATIONS=    3106
 
 SOLVING FOR HEAD 

 NO OUTPUT CONTROL FOR STRESS PERIOD    1   TIME STEP   77
 SOLVING FOR ZETA FOR LAYER     1 ZONE     2

    1574 UPPER PART EQS.      1633 LOWER PART EQS.    BAND WIDTH + 1 =  108
 INSUFFICIENT MEMORY FOR DE4 SOLVER:
 MXBW MUST BE AT LEAST  108
 
 SOLVING FOR HEAD 

 NO OUTPUT CONTROL FOR STRESS PERIOD    1   TIME STEP   78
 SOLVING FOR ZETA FOR LAYER     1 ZONE     2

    1846 UPPER PART EQS.      1803 LOWER PART EQS.    BAND WIDTH + 1 =   83
 STRESS PERIOD=  1 TIMESTEP= 78 LAYER=  1 ZONE=  2 ACTIVE CELLS= 3649 NUMBER OF EQUATIONS=    3649
 
 SOLVING FOR HEAD 

 NO OUTPUT CONTROL FOR STRESS PERIOD    1   TIME STEP   79
 SOLVING FOR ZETA FOR LAYER     1 ZONE     2

    1515 UPPER PART EQS.      1559 LOWER PART EQS.    BAND WIDTH + 1 =   73
 STRESS PERIOD=  1 TIMESTEP= 79 LAYER=  1 ZONE=  2 ACTIVE CELLS= 3074 NUMBER OF EQUATIONS=    3074
 
 SOLVING FOR HEAD 

 OUTPUT CONTROL FOR STRESS PERIOD    1   TIME STEP   80
    SAVE HEAD FOR ALL LAYERS
    PRINT BUDGET
 SOLVING FOR ZETA FOR LAYER     1 ZONE     2

    1693 UPPER PART EQS.      1626 LOWER PART EQS.    BAND WIDTH + 1 =  100
 STRESS PERIOD=  1 TIMESTEP= 80 LAYER=  1 ZONE=  2 ACTIVE CELLS= 3319 NUMBER OF EQUATIONS=    3319
 UBUDSV SAVING "      ZETASRF  1" ON UNIT 55 AT TIME STEP 80, STRESS PERIOD    1


                      VOLUMETRIC SWI ZONE BUDGET FOR ENTIRE MODEL
                     AT END OF TIME STEP   80 IN STRESS PERIOD   1
                                      ZONE     1
  -----------------------------------------------------------------------------------

        CUMULATIVE VOLUMES      L**3       RATES FOR THIS TIME STEP      L**3/T
        ------------------                 ------------------------

              IN:                                      IN:
              ---                                      ---
             BOUNDARIES = 18611019776.0000            BOUNDARIES =      605241.2500
          CONSTANT HEAD = 13698243584.0000         CONSTANT HEAD =      219165.1406
            ZONE CHANGE =147373506560.0000           ZONE CHANGE =     4909217.5000
       ZONE CHG TIP/TOE =       2.0665E+12      ZONE CHG TIP/TOE =    66307516.0000
            ZONE MIXING =           0.0000           ZONE MIXING =           0.0000

               TOTAL IN =       2.2462E+12              TOTAL IN =    72041136.0000

             OUT:                                     OUT:
             ----                                     ----
             BOUNDARIES =           0.0000            BOUNDARIES =           0.0000
          CONSTANT HEAD =971159633920.0000         CONSTANT HEAD =    16720680.0000
            ZONE CHANGE =       2.2192E+12           ZONE CHANGE =    70602360.0000
       ZONE CHG TIP/TOE =   247589824.0000      ZONE CHG TIP/TOE =        3348.0891
            ZONE MIXING =           0.0000           ZONE MIXING =           0.0000

              TOTAL OUT =       3.1906E+12             TOTAL OUT =    87326392.0000

               IN - OUT =*****************              IN - OUT =   -15285256.0000

    PERCENT DISCREPANCY =         -34.74     PERCENT DISCREPANCY =         -19.18



                      VOLUMETRIC SWI ZONE BUDGET FOR ENTIRE MODEL
                     AT END OF TIME STEP   80 IN STRESS PERIOD   1
                                      ZONE     2
  -----------------------------------------------------------------------------------

        CUMULATIVE VOLUMES      L**3       RATES FOR THIS TIME STEP      L**3/T
        ------------------                 ------------------------

              IN:                                      IN:
              ---                                      ---
             BOUNDARIES =  5428142592.0000            BOUNDARIES =      217454.1719
          CONSTANT HEAD =       1.0197E+12         CONSTANT HEAD =    18637274.0000
            ZONE CHANGE =152662179840.0000           ZONE CHANGE =     4295205.0000
       ZONE CHG TIP/TOE =       1.6456E+14      ZONE CHG TIP/TOE =  3403038464.0000
            ZONE MIXING =           0.0000           ZONE MIXING =           0.0000

               TOTAL IN =       1.6573E+14              TOTAL IN =  3426188288.0000

             OUT:                                     OUT:
             ----                                     ----
             BOUNDARIES =           0.0000            BOUNDARIES =           0.0000
          CONSTANT HEAD = 86327558144.0000         CONSTANT HEAD =     2958454.2500
            ZONE CHANGE =       1.6470E+14           ZONE CHANGE =  3407944448.0000
       ZONE CHG TIP/TOE =    11302744.0000      ZONE CHG TIP/TOE =         361.1776
            ZONE MIXING =           0.0000           ZONE MIXING =           0.0000

              TOTAL OUT =       1.6479E+14             TOTAL OUT =  3410903040.0000

               IN - OUT =944355934208.0000              IN - OUT =    15285248.0000

    PERCENT DISCREPANCY =           0.57     PERCENT DISCREPANCY =           0.45


 HEAD WILL BE SAVED ON UNIT   51 AT END OF TIME STEP   80, STRESS PERIOD    1
1
  VOLUMETRIC BUDGET FOR ENTIRE MODEL AT END OF TIME STEP   80, STRESS PERIOD   1
  ------------------------------------------------------------------------------

     CUMULATIVE VOLUMES      L**3       RATES FOR THIS TIME STEP      L**3/T
     ------------------                 ------------------------

           IN:                                      IN:
           ---                                      ---
             STORAGE =           0.0000               STORAGE =           0.0000
       CONSTANT HEAD =       1.6799E+12         CONSTANT HEAD =    35270200.0000
          SWIADDTOCH =       1.3558E+12            SWIADDTOCH =    10670445.0000
            RECHARGE = 24039151616.0000              RECHARGE =      822695.3750

            TOTAL IN =       3.0597E+12              TOTAL IN =    46763340.0000

          OUT:                                     OUT:
          ----                                     ----
             STORAGE =           0.0000               STORAGE =           0.0000
       CONSTANT HEAD =       1.4345E+12         CONSTANT HEAD =     5660882.5000
          SWIADDTOCH =       1.6252E+12            SWIADDTOCH =    41102456.0000
            RECHARGE =           0.0000              RECHARGE =           0.0000

           TOTAL OUT =       3.0597E+12             TOTAL OUT =    46763340.0000

            IN - OUT =      524288.0000              IN - OUT =           0.0000

 PERCENT DISCREPANCY =           0.00     PERCENT DISCREPANCY =           0.00






         TIME SUMMARY AT END OF TIME STEP   80 IN STRESS PERIOD    1
                    SECONDS     MINUTES      HOURS       DAYS        YEARS
                    -----------------------------------------------------------
   TIME STEP LENGTH 3.15576E+07 5.25960E+05  8766.0      365.25      1.0000    
 STRESS PERIOD TIME 2.52461E+09 4.20768E+07 7.01280E+05  29220.      80.000    
         TOTAL TIME 2.52461E+09 4.20768E+07 7.01280E+05  29220.      80.000    
1
 
 SOLVING FOR HEAD 

 NO OUTPUT CONTROL FOR STRESS PERIOD    1   TIME STEP   81
 SOLVING FOR ZETA FOR LAYER     1 ZONE     2

    1507 UPPER PART EQS.      1573 LOWER PART EQS.    BAND WIDTH + 1 =  124
 INSUFFICIENT MEMORY FOR DE4 SOLVER:
 MXBW MUST BE AT LEAST  124
 
 SOLVING FOR HEAD 

 NO OUTPUT CONTROL FOR STRESS PERIOD    1   TIME STEP   82
 SOLVING FOR ZETA FOR LAYER     1 ZONE     2

    1761 UPPER PART EQS.      1742 LOWER PART EQS.    BAND WIDTH + 1 =   80
 STRESS PERIOD=  1 TIMESTEP= 82 LAYER=  1 ZONE=  2 ACTIVE CELLS= 3503 NUMBER OF EQUATIONS=    3503
 
 SOLVING FOR HEAD 

 NO OUTPUT CONTROL FOR STRESS PERIOD    1   TIME STEP   83
 SOLVING FOR ZETA FOR LAYER     1 ZONE     2

    1568 UPPER PART EQS.      1565 LOWER PART EQS.    BAND WIDTH + 1 =   58
 STRESS PERIOD=  1 TIMESTEP= 83 LAYER=  1 ZONE=  2 ACTIVE CELLS= 3133 NUMBER OF EQUATIONS=    3133
 
 SOLVING FOR HEAD 

 NO OUTPUT CONTROL FOR STRESS PERIOD    1   TIME STEP   84
 SOLVING FOR ZETA FOR LAYER     1 ZONE     2

    1658 UPPER PART EQS.      1645 LOWER PART EQS.    BAND WIDTH + 1 =   65
 STRESS PERIOD=  1 TIMESTEP= 84 LAYER=  1 ZONE=  2 ACTIVE CELLS= 3303 NUMBER OF EQUATIONS=    3303
 
 SOLVING FOR HEAD 

 NO OUTPUT CONTROL FOR STRESS PERIOD    1   TIME STEP   85
 SOLVING FOR ZETA FOR LAYER     1 ZONE     2

    1688 UPPER PART EQS.      1667 LOWER PART EQS.    BAND WIDTH + 1 =   73
 STRESS PERIOD=  1 TIMESTEP= 85 LAYER=  1 ZONE=  2 ACTIVE CELLS= 3355 NUMBER OF EQUATIONS=    3355
 
 SOLVING FOR HEAD 

 NO OUTPUT CONTROL FOR STRESS PERIOD    1   TIME STEP   86
 SOLVING FOR ZETA FOR LAYER     1 ZONE     2

    1736 UPPER PART EQS.      1757 LOWER PART EQS.    BAND WIDTH + 1 =   81
 STRESS PERIOD=  1 TIMESTEP= 86 LAYER=  1 ZONE=  2 ACTIVE CELLS= 3493 NUMBER OF EQUATIONS=    3493
 
 SOLVING FOR HEAD 

 NO OUTPUT CONTROL FOR STRESS PERIOD    1   TIME STEP   87
 SOLVING FOR ZETA FOR LAYER     1 ZONE     2

    1614 UPPER PART EQS.      1575 LOWER PART EQS.    BAND WIDTH + 1 =  114
 INSUFFICIENT MEMORY FOR DE4 SOLVER:
 MXBW MUST BE AT LEAST  114
 
 SOLVING FOR HEAD 

 NO OUTPUT CONTROL FOR STRESS PERIOD    1   TIME STEP   88
 SOLVING FOR ZETA FOR LAYER     1 ZONE     2

    1872 UPPER PART EQS.      1864 LOWER PART EQS.    BAND WIDTH + 1 =   78
 STRESS PERIOD=  1 TIMESTEP= 88 LAYER=  1 ZONE=  2 ACTIVE CELLS= 3736 NUMBER OF EQUATIONS=    3736
 
 SOLVING FOR HEAD 

 NO OUTPUT CONTROL FOR STRESS PERIOD    1   TIME STEP   89
 SOLVING FOR ZETA FOR LAYER     1 ZONE     2

    1627 UPPER PART EQS.      1630 LOWER PART EQS.    BAND WIDTH + 1 =   81
 STRESS PERIOD=  1 TIMESTEP= 89 LAYER=  1 ZONE=  2 ACTIVE CELLS= 3257 NUMBER OF EQUATIONS=    3257
 
 SOLVING FOR HEAD 

 NO OUTPUT CONTROL FOR STRESS PERIOD    1   TIME STEP   90
 SOLVING FOR ZETA FOR LAYER     1 ZONE     2

    1699 UPPER PART EQS.      1721 LOWER PART EQS.    BAND WIDTH + 1 =   81
 STRESS PERIOD=  1 TIMESTEP= 90 LAYER=  1 ZONE=  2 ACTIVE CELLS= 3420 NUMBER OF EQUATIONS=    3420
 
 SOLVING FOR HEAD 

 NO OUTPUT CONTROL FOR STRESS PERIOD    1   TIME STEP   91
 SOLVING FOR ZETA FOR LAYER     1 ZONE     2

    1810 UPPER PART EQS.      1794 LOWER PART EQS.    BAND WIDTH + 1 =   81
 STRESS PERIOD=  1 TIMESTEP= 91 LAYER=  1 ZONE=  2 ACTIVE CELLS= 3604 NUMBER OF EQUATIONS=    3604
 
 SOLVING FOR HEAD 

 NO OUTPUT CONTROL FOR STRESS PERIOD    1   TIME STEP   92
 SOLVING FOR ZETA FOR LAYER     1 ZONE     2

    1602 UPPER PART EQS.      1631 LOWER PART EQS.    BAND WIDTH + 1 =   84
 STRESS PERIOD=  1 TIMESTEP= 92 LAYER=  1 ZONE=  2 ACTIVE CELLS= 3233 NUMBER OF EQUATIONS=    3233
 
 SOLVING FOR HEAD 

 NO OUTPUT CONTROL FOR STRESS PERIOD    1   TIME STEP   93
 SOLVING FOR ZETA FOR LAYER     1 ZONE     2

    1567 UPPER PART EQS.      1549 LOWER PART EQS.    BAND WIDTH + 1 =   96
 STRESS PERIOD=  1 TIMESTEP= 93 LAYER=  1 ZONE=  2 ACTIVE CELLS= 3116 NUMBER OF EQUATIONS=    3116
 
 SOLVING FOR HEAD 

 NO OUTPUT CONTROL FOR STRESS PERIOD    1   TIME STEP   94
 SOLVING FOR ZETA FOR LAYER     1 ZONE     2

    1532 UPPER PART EQS.      1552 LOWER PART EQS.    BAND WIDTH + 1 =   97
 STRESS PERIOD=  1 TIMESTEP= 94 LAYER=  1 ZONE=  2 ACTIVE CELLS= 3084 NUMBER OF EQUATIONS=    3084
 
 SOLVING FOR HEAD 

 NO OUTPUT CONTROL FOR STRESS PERIOD    1   TIME STEP   95
 SOLVING FOR ZETA FOR LAYER     1 ZONE     2

    1645 UPPER PART EQS.      1613 LOWER PART EQS.    BAND WIDTH + 1 =  119
 INSUFFICIENT MEMORY FOR DE4 SOLVER:
 MXBW MUST BE AT LEAST  119
 
 SOLVING FOR HEAD 

 NO OUTPUT CONTROL FOR STRESS PERIOD    1   TIME STEP   96
 SOLVING FOR ZETA FOR LAYER     1 ZONE     2

    1889 UPPER PART EQS.      1904 LOWER PART EQS.    BAND WIDTH + 1 =   83
 STRESS PERIOD=  1 TIMESTEP= 96 LAYER=  1 ZONE=  2 ACTIVE CELLS= 3793 NUMBER OF EQUATIONS=    3793
 
 SOLVING FOR HEAD 

 NO OUTPUT CONTROL FOR STRESS PERIOD    1   TIME STEP   97
 SOLVING FOR ZETA FOR LAYER     1 ZONE     2

    1581 UPPER PART EQS.      1615 LOWER PART EQS.    BAND WIDTH + 1 =   66
 STRESS PERIOD=  1 TIMESTEP= 97 LAYER=  1 ZONE=  2 ACTIVE CELLS= 3196 NUMBER OF EQUATIONS=    3196
 
 SOLVING FOR HEAD 

 NO OUTPUT CONTROL FOR STRESS PERIOD    1   TIME STEP   98
 SOLVING FOR ZETA FOR LAYER     1 ZONE     2

    1729 UPPER PART EQS.      1704 LOWER PART EQS.    BAND WIDTH + 1 =   70
 STRESS PERIOD=  1 TIMESTEP= 98 LAYER=  1 ZONE=  2 ACTIVE CELLS= 3433 NUMBER OF EQUATIONS=    3433
 
 SOLVING FOR HEAD 

 NO OUTPUT CONTROL FOR STRESS PERIOD    1   TIME STEP   99
 SOLVING FOR ZETA FOR LAYER     1 ZONE     2

    1790 UPPER PART EQS.      1825 LOWER PART EQS.    BAND WIDTH + 1 =   68
 STRESS PERIOD=  1 TIMESTEP= 99 LAYER=  1 ZONE=  2 ACTIVE CELLS= 3615 NUMBER OF EQUATIONS=    3615
 
 SOLVING FOR HEAD 

 OUTPUT CONTROL FOR STRESS PERIOD    1   TIME STEP  100
    SAVE HEAD FOR ALL LAYERS
    PRINT BUDGET
 SOLVING FOR ZETA FOR LAYER     1 ZONE     2

    1804 UPPER PART EQS.      1770 LOWER PART EQS.    BAND WIDTH + 1 =   70
 STRESS PERIOD=  1 TIMESTEP=100 LAYER=  1 ZONE=  2 ACTIVE CELLS= 3574 NUMBER OF EQUATIONS=    3574
 UBUDSV SAVING "      ZETASRF  1" ON UNIT 55 AT TIME STEP100, STRESS PERIOD    1


                      VOLUMETRIC SWI ZONE BUDGET FOR ENTIRE MODEL
                     AT END OF TIME STEP  100 IN STRESS PERIOD   1
                                      ZONE     1
  -----------------------------------------------------------------------------------

        CUMULATIVE VOLUMES      L**3       RATES FOR THIS TIME STEP      L**3/T
        ------------------                 ------------------------

              IN:                                      IN:
              ---                                      ---
             BOUNDARIES = 22925207552.0000            BOUNDARIES =      640408.7500
          CONSTANT HEAD = 15835113472.0000         CONSTANT HEAD =        9352.2227
            ZONE CHANGE =173239795712.0000           ZONE CHANGE =     4084874.5000
       ZONE CHG TIP/TOE =       2.4072E+12      ZONE CHG TIP/TOE =    68598056.0000
            ZONE MIXING =           0.0000           ZONE MIXING =           0.0000

               TOTAL IN =       2.6192E+12              TOTAL IN =    73332688.0000

             OUT:                                     OUT:
             ----                                     ----
             BOUNDARIES =           0.0000            BOUNDARIES =           0.0000
          CONSTANT HEAD =       1.1430E+12         CONSTANT HEAD =     2751478.2500
            ZONE CHANGE =       2.5866E+12           ZONE CHANGE =    73102160.0000
       ZONE CHG TIP/TOE =   291070944.0000      ZONE CHG TIP/TOE =        4704.1177
            ZONE MIXING =           0.0000           ZONE MIXING =           0.0000

              TOTAL OUT =       3.7300E+12             TOTAL OUT =    75858344.0000

               IN - OUT =      -1.1108E+12              IN - OUT =    -2525656.0000

    PERCENT DISCREPANCY =         -34.99     PERCENT DISCREPANCY =          -3.39



                      VOLUMETRIC SWI ZONE BUDGET FOR ENTIRE MODEL
                     AT END OF TIME STEP  100 IN STRESS PERIOD   1
                                      ZONE     2
  -----------------------------------------------------------------------------------

        CUMULATIVE VOLUMES      L**3       RATES FOR THIS TIME STEP      L**3/T
        ------------------                 ------------------------

              IN:                                      IN:
              ---                                      ---
             BOUNDARIES =  7123742208.0000            BOUNDARIES =      182286.6562
          CONSTANT HEAD =       1.2064E+12         CONSTANT HEAD =     5430542.5000
            ZONE CHANGE =179510050816.0000           ZONE CHANGE =     4504433.5000
       ZONE CHG TIP/TOE =       1.9127E+14      ZONE CHG TIP/TOE =  5801883648.0000
            ZONE MIXING =           0.0000           ZONE MIXING =           0.0000

               TOTAL IN =       1.9267E+14              TOTAL IN =  5812000768.0000

             OUT:                                     OUT:
             ----                                     ----
             BOUNDARIES =           0.0000            BOUNDARIES =           0.0000
          CONSTANT HEAD =109199491072.0000         CONSTANT HEAD =     3511111.0000
            ZONE CHANGE =       1.9145E+14           ZONE CHANGE =  5805964288.0000
       ZONE CHG TIP/TOE =    13817003.0000      ZONE CHG TIP/TOE =         329.1463
            ZONE MIXING =           0.0000           ZONE MIXING =           0.0000

              TOTAL OUT =       1.9155E+14             TOTAL OUT =  5809476096.0000

               IN - OUT =       1.1109E+12              IN - OUT =     2524672.0000

    PERCENT DISCREPANCY =           0.58     PERCENT DISCREPANCY =           0.04


 HEAD WILL BE SAVED ON UNIT   51 AT END OF TIME STEP  100, STRESS PERIOD    1
1
  VOLUMETRIC BUDGET FOR ENTIRE MODEL AT END OF TIME STEP  100, STRESS PERIOD   1
  ------------------------------------------------------------------------------

     CUMULATIVE VOLUMES      L**3       RATES FOR THIS TIME STEP      L**3/T
     ------------------                 ------------------------

           IN:                                      IN:
           ---                                      ---
             STORAGE =           0.0000               STORAGE =           0.0000
       CONSTANT HEAD =       2.0921E+12         CONSTANT HEAD =    15162202.0000
          SWIADDTOCH =       1.5015E+12            SWIADDTOCH =    24351940.0000
            RECHARGE = 30048925696.0000              RECHARGE =      822695.3750

[...]
            ZONE MIXING =           0.0000           ZONE MIXING =           0.0000

               TOTAL IN =       7.0337E+14              TOTAL IN =  1316952448.0000

             OUT:                                     OUT:
             ----                                     ----
             BOUNDARIES =           0.0000            BOUNDARIES =           0.0000
          CONSTANT HEAD =445921361920.0000         CONSTANT HEAD =     3723886.7500
            ZONE CHANGE =       6.9947E+14           ZONE CHANGE =  1311932672.0000
       ZONE CHG TIP/TOE =    47814264.0000      ZONE CHG TIP/TOE =         366.2095
            ZONE MIXING =           0.0000           ZONE MIXING =           0.0000

              TOTAL OUT =       6.9991E+14             TOTAL OUT =  1315656960.0000

               IN - OUT =       3.4628E+12              IN - OUT =     1295488.0000

    PERCENT DISCREPANCY =           0.49     PERCENT DISCREPANCY =           0.10


 HEAD WILL BE SAVED ON UNIT   51 AT END OF TIME STEP  380, STRESS PERIOD    1
1
  VOLUMETRIC BUDGET FOR ENTIRE MODEL AT END OF TIME STEP  380, STRESS PERIOD   1
  ------------------------------------------------------------------------------

     CUMULATIVE VOLUMES      L**3       RATES FOR THIS TIME STEP      L**3/T
     ------------------                 ------------------------

           IN:                                      IN:
           ---                                      ---
             STORAGE =           0.0000               STORAGE =           0.0000
       CONSTANT HEAD =       6.7467E+12         CONSTANT HEAD =    12923038.0000
          SWIADDTOCH =       5.0255E+12            SWIADDTOCH =    78778392.0000
            RECHARGE =114186305536.0000              RECHARGE =      822695.3750

            TOTAL IN =       1.1886E+13              TOTAL IN =    92524128.0000

          OUT:                                     OUT:
          ----                                     ----
             STORAGE =           0.0000               STORAGE =           0.0000
       CONSTANT HEAD =       5.2429E+12         CONSTANT HEAD =    79152392.0000
          SWIADDTOCH =       6.6434E+12            SWIADDTOCH =    13371730.0000
            RECHARGE =           0.0000              RECHARGE =           0.0000

           TOTAL OUT =       1.1886E+13             TOTAL OUT =    92524120.0000

            IN - OUT =     9437184.0000              IN - OUT =           8.0000

 PERCENT DISCREPANCY =           0.00     PERCENT DISCREPANCY =           0.00






         TIME SUMMARY AT END OF TIME STEP  380 IN STRESS PERIOD    1
                    SECONDS     MINUTES      HOURS       DAYS        YEARS
                    -----------------------------------------------------------
   TIME STEP LENGTH 3.15576E+07 5.25960E+05  8766.0      365.25      1.0000    
 STRESS PERIOD TIME 1.19919E+10 1.99865E+08 3.33108E+06 1.38795E+05  380.00    
         TOTAL TIME 1.19919E+10 1.99865E+08 3.33108E+06 1.38795E+05  380.00    
1
 
 SOLVING FOR HEAD 

 NO OUTPUT CONTROL FOR STRESS PERIOD    1   TIME STEP  381
 SOLVING FOR ZETA FOR LAYER     1 ZONE     2

    1685 UPPER PART EQS.      1705 LOWER PART EQS.    BAND WIDTH + 1 =   66
 STRESS PERIOD=  1 TIMESTEP=381 LAYER=  1 ZONE=  2 ACTIVE CELLS= 3390 NUMBER OF EQUATIONS=    3390
 
 SOLVING FOR HEAD 

 NO OUTPUT CONTROL FOR STRESS PERIOD    1   TIME STEP  382
 SOLVING FOR ZETA FOR LAYER     1 ZONE     2

    1685 UPPER PART EQS.      1641 LOWER PART EQS.    BAND WIDTH + 1 =   81
 STRESS PERIOD=  1 TIMESTEP=382 LAYER=  1 ZONE=  2 ACTIVE CELLS= 3326 NUMBER OF EQUATIONS=    3326
 
 SOLVING FOR HEAD 

 NO OUTPUT CONTROL FOR STRESS PERIOD    1   TIME STEP  383
 SOLVING FOR ZETA FOR LAYER     1 ZONE     2

    1606 UPPER PART EQS.      1660 LOWER PART EQS.    BAND WIDTH + 1 =   81
 STRESS PERIOD=  1 TIMESTEP=383 LAYER=  1 ZONE=  2 ACTIVE CELLS= 3266 NUMBER OF EQUATIONS=    3266
 
 SOLVING FOR HEAD 

 NO OUTPUT CONTROL FOR STRESS PERIOD    1   TIME STEP  384
 SOLVING FOR ZETA FOR LAYER     1 ZONE     2

    1728 UPPER PART EQS.      1660 LOWER PART EQS.    BAND WIDTH + 1 =  101
 STRESS PERIOD=  1 TIMESTEP=384 LAYER=  1 ZONE=  2 ACTIVE CELLS= 3388 NUMBER OF EQUATIONS=    3388
 
 SOLVING FOR HEAD 

 NO OUTPUT CONTROL FOR STRESS PERIOD    1   TIME STEP  385
 SOLVING FOR ZETA FOR LAYER     1 ZONE     2

    1608 UPPER PART EQS.      1683 LOWER PART EQS.    BAND WIDTH + 1 =  118
 INSUFFICIENT MEMORY FOR DE4 SOLVER:
 MXBW MUST BE AT LEAST  118
 
 SOLVING FOR HEAD 

 NO OUTPUT CONTROL FOR STRESS PERIOD    1   TIME STEP  386
 SOLVING FOR ZETA FOR LAYER     1 ZONE     2

    1875 UPPER PART EQS.      1848 LOWER PART EQS.    BAND WIDTH + 1 =   72
 STRESS PERIOD=  1 TIMESTEP=386 LAYER=  1 ZONE=  2 ACTIVE CELLS= 3723 NUMBER OF EQUATIONS=    3723
 
 SOLVING FOR HEAD 

 NO OUTPUT CONTROL FOR STRESS PERIOD    1   TIME STEP  387
 SOLVING FOR ZETA FOR LAYER     1 ZONE     2

    1484 UPPER PART EQS.      1512 LOWER PART EQS.    BAND WIDTH + 1 =   65
 STRESS PERIOD=  1 TIMESTEP=387 LAYER=  1 ZONE=  2 ACTIVE CELLS= 2996 NUMBER OF EQUATIONS=    2996
 
 SOLVING FOR HEAD 

 NO OUTPUT CONTROL FOR STRESS PERIOD    1   TIME STEP  388
 SOLVING FOR ZETA FOR LAYER     1 ZONE     2

    1516 UPPER PART EQS.      1495 LOWER PART EQS.    BAND WIDTH + 1 =   63
 STRESS PERIOD=  1 TIMESTEP=388 LAYER=  1 ZONE=  2 ACTIVE CELLS= 3011 NUMBER OF EQUATIONS=    3011
 
 SOLVING FOR HEAD 

 NO OUTPUT CONTROL FOR STRESS PERIOD    1   TIME STEP  389
 SOLVING FOR ZETA FOR LAYER     1 ZONE     2

    1597 UPPER PART EQS.      1631 LOWER PART EQS.    BAND WIDTH + 1 =   76
 STRESS PERIOD=  1 TIMESTEP=389 LAYER=  1 ZONE=  2 ACTIVE CELLS= 3228 NUMBER OF EQUATIONS=    3228
 
 SOLVING FOR HEAD 

 NO OUTPUT CONTROL FOR STRESS PERIOD    1   TIME STEP  390
 SOLVING FOR ZETA FOR LAYER     1 ZONE     2

    1636 UPPER PART EQS.      1612 LOWER PART EQS.    BAND WIDTH + 1 =   73
 STRESS PERIOD=  1 TIMESTEP=390 LAYER=  1 ZONE=  2 ACTIVE CELLS= 3248 NUMBER OF EQUATIONS=    3248
 
 SOLVING FOR HEAD 

 NO OUTPUT CONTROL FOR STRESS PERIOD    1   TIME STEP  391
 SOLVING FOR ZETA FOR LAYER     1 ZONE     2

    1764 UPPER PART EQS.      1762 LOWER PART EQS.    BAND WIDTH + 1 =   76
 STRESS PERIOD=  1 TIMESTEP=391 LAYER=  1 ZONE=  2 ACTIVE CELLS= 3526 NUMBER OF EQUATIONS=    3526
 
 SOLVING FOR HEAD 

 NO OUTPUT CONTROL FOR STRESS PERIOD    1   TIME STEP  392
 SOLVING FOR ZETA FOR LAYER     1 ZONE     2

    1697 UPPER PART EQS.      1722 LOWER PART EQS.    BAND WIDTH + 1 =   81
 STRESS PERIOD=  1 TIMESTEP=392 LAYER=  1 ZONE=  2 ACTIVE CELLS= 3419 NUMBER OF EQUATIONS=    3419
 
 SOLVING FOR HEAD 

 NO OUTPUT CONTROL FOR STRESS PERIOD    1   TIME STEP  393
 SOLVING FOR ZETA FOR LAYER     1 ZONE     2

    1722 UPPER PART EQS.      1660 LOWER PART EQS.    BAND WIDTH + 1 =   89
 STRESS PERIOD=  1 TIMESTEP=393 LAYER=  1 ZONE=  2 ACTIVE CELLS= 3382 NUMBER OF EQUATIONS=    3382
 
 SOLVING FOR HEAD 

 NO OUTPUT CONTROL FOR STRESS PERIOD    1   TIME STEP  394
 SOLVING FOR ZETA FOR LAYER     1 ZONE     2

    1551 UPPER PART EQS.      1617 LOWER PART EQS.    BAND WIDTH + 1 =   94
 STRESS PERIOD=  1 TIMESTEP=394 LAYER=  1 ZONE=  2 ACTIVE CELLS= 3168 NUMBER OF EQUATIONS=    3168
 
 SOLVING FOR HEAD 

 NO OUTPUT CONTROL FOR STRESS PERIOD    1   TIME STEP  395
 SOLVING FOR ZETA FOR LAYER     1 ZONE     2

    1609 UPPER PART EQS.      1543 LOWER PART EQS.    BAND WIDTH + 1 =   88
 STRESS PERIOD=  1 TIMESTEP=395 LAYER=  1 ZONE=  2 ACTIVE CELLS= 3152 NUMBER OF EQUATIONS=    3152
 
 SOLVING FOR HEAD 

 NO OUTPUT CONTROL FOR STRESS PERIOD    1   TIME STEP  396
 SOLVING FOR ZETA FOR LAYER     1 ZONE     2

    1560 UPPER PART EQS.      1625 LOWER PART EQS.    BAND WIDTH + 1 =   77
 STRESS PERIOD=  1 TIMESTEP=396 LAYER=  1 ZONE=  2 ACTIVE CELLS= 3185 NUMBER OF EQUATIONS=    3185
 
 SOLVING FOR HEAD 

 NO OUTPUT CONTROL FOR STRESS PERIOD    1   TIME STEP  397
 SOLVING FOR ZETA FOR LAYER     1 ZONE     2

    1655 UPPER PART EQS.      1592 LOWER PART EQS.    BAND WIDTH + 1 =   92
 STRESS PERIOD=  1 TIMESTEP=397 LAYER=  1 ZONE=  2 ACTIVE CELLS= 3247 NUMBER OF EQUATIONS=    3247
 
 SOLVING FOR HEAD 

 NO OUTPUT CONTROL FOR STRESS PERIOD    1   TIME STEP  398
 SOLVING FOR ZETA FOR LAYER     1 ZONE     2

    1614 UPPER PART EQS.      1664 LOWER PART EQS.    BAND WIDTH + 1 =  101
 STRESS PERIOD=  1 TIMESTEP=398 LAYER=  1 ZONE=  2 ACTIVE CELLS= 3278 NUMBER OF EQUATIONS=    3278
 
 SOLVING FOR HEAD 

 NO OUTPUT CONTROL FOR STRESS PERIOD    1   TIME STEP  399
 SOLVING FOR ZETA FOR LAYER     1 ZONE     2

    1762 UPPER PART EQS.      1723 LOWER PART EQS.    BAND WIDTH + 1 =  103
 STRESS PERIOD=  1 TIMESTEP=399 LAYER=  1 ZONE=  2 ACTIVE CELLS= 3485 NUMBER OF EQUATIONS=    3485
 
 SOLVING FOR HEAD 

 OUTPUT CONTROL FOR STRESS PERIOD    1   TIME STEP  400
    SAVE HEAD FOR ALL LAYERS
    PRINT BUDGET
 SOLVING FOR ZETA FOR LAYER     1 ZONE     2

    1857 UPPER PART EQS.      1906 LOWER PART EQS.    BAND WIDTH + 1 =  129
 INSUFFICIENT MEMORY FOR DE4 SOLVER:
 MXBW MUST BE AT LEAST  129
 UBUDSV SAVING "      ZETASRF  1" ON UNIT 55 AT TIME STEP400, STRESS PERIOD    1


                      VOLUMETRIC SWI ZONE BUDGET FOR ENTIRE MODEL
                     AT END OF TIME STEP  400 IN STRESS PERIOD   1
                                      ZONE     1
  -----------------------------------------------------------------------------------

        CUMULATIVE VOLUMES      L**3       RATES FOR THIS TIME STEP      L**3/T
        ------------------                 ------------------------

              IN:                                      IN:
              ---                                      ---
             BOUNDARIES = 87871201280.0000            BOUNDARIES =      630503.9375
          CONSTANT HEAD = 51515174912.0000         CONSTANT HEAD =      130989.2344
            ZONE CHANGE =602829291520.0000           ZONE CHANGE =           0.0000
       ZONE CHG TIP/TOE =       9.3608E+12      ZONE CHG TIP/TOE =         533.8540
            ZONE MIXING =           0.0000           ZONE MIXING =           0.0000

               TOTAL IN =       1.0103E+13              TOTAL IN =      762027.0625

             OUT:                                     OUT:
             ----                                     ----
             BOUNDARIES =           0.0000            BOUNDARIES =           0.0000
          CONSTANT HEAD =       3.7899E+12         CONSTANT HEAD =    24265178.0000
            ZONE CHANGE =       9.9702E+12           ZONE CHANGE =           0.0000
       ZONE CHG TIP/TOE =  1318044672.0000      ZONE CHG TIP/TOE =         550.7828
            ZONE MIXING =           0.0000           ZONE MIXING =           0.0000

              TOTAL OUT =       1.3761E+13             TOTAL OUT =    24265728.0000

               IN - OUT =      -3.6584E+12              IN - OUT =   -23503700.0000

    PERCENT DISCREPANCY =         -30.66     PERCENT DISCREPANCY =        -187.82



                      VOLUMETRIC SWI ZONE BUDGET FOR ENTIRE MODEL
                     AT END OF TIME STEP  400 IN STRESS PERIOD   1
                                      ZONE     2
  -----------------------------------------------------------------------------------

        CUMULATIVE VOLUMES      L**3       RATES FOR THIS TIME STEP      L**3/T
        ------------------                 ------------------------

              IN:                                      IN:
              ---                                      ---
             BOUNDARIES = 32324601856.0000            BOUNDARIES =      192191.4688
          CONSTANT HEAD =       4.0842E+12         CONSTANT HEAD =    25132662.0000
            ZONE CHANGE =609424703488.0000           ZONE CHANGE =           0.0000
       ZONE CHG TIP/TOE =       7.4026E+14      ZONE CHG TIP/TOE =         550.7828
            ZONE MIXING =           0.0000           ZONE MIXING =           0.0000

               TOTAL IN =       7.4499E+14              TOTAL IN =    25325404.0000

             OUT:                                     OUT:
             ----                                     ----
             BOUNDARIES =           0.0000            BOUNDARIES =           0.0000
          CONSTANT HEAD =465945395200.0000         CONSTANT HEAD =     1821174.3750
            ZONE CHANGE =       7.4087E+14           ZONE CHANGE =           0.0000
       ZONE CHG TIP/TOE =    50463464.0000      ZONE CHG TIP/TOE =         533.8540
            ZONE MIXING =           0.0000           ZONE MIXING =           0.0000

              TOTAL OUT =       7.4133E+14             TOTAL OUT =     1821708.2500

               IN - OUT =       3.6585E+12              IN - OUT =    23503696.0000

    PERCENT DISCREPANCY =           0.49     PERCENT DISCREPANCY =         173.16


 HEAD WILL BE SAVED ON UNIT   51 AT END OF TIME STEP  400, STRESS PERIOD    1
1
  VOLUMETRIC BUDGET FOR ENTIRE MODEL AT END OF TIME STEP  400, STRESS PERIOD   1
  ------------------------------------------------------------------------------

     CUMULATIVE VOLUMES      L**3       RATES FOR THIS TIME STEP      L**3/T
     ------------------                 ------------------------

           IN:                                      IN:
           ---                                      ---
             STORAGE =           0.0000               STORAGE =           0.0000
       CONSTANT HEAD =       7.1543E+12         CONSTANT HEAD =   129343248.0000
          SWIADDTOCH =       5.3083E+12            SWIADDTOCH =     5146198.5000
            RECHARGE =120196120576.0000              RECHARGE =      822695.3750

            TOTAL IN =       1.2583E+13              TOTAL IN =   135312128.0000

          OUT:                                     OUT:
          ----                                     ----
             STORAGE =           0.0000               STORAGE =           0.0000
       CONSTANT HEAD =       5.5321E+12         CONSTANT HEAD =     5416098.0000
          SWIADDTOCH =       7.0506E+12            SWIADDTOCH =   129896048.0000
            RECHARGE =           0.0000              RECHARGE =           0.0000

           TOTAL OUT =       1.2583E+13             TOTAL OUT =   135312144.0000

            IN - OUT =     7340032.0000              IN - OUT =         -16.0000

 PERCENT DISCREPANCY =           0.00     PERCENT DISCREPANCY =          -0.00






         TIME SUMMARY AT END OF TIME STEP  400 IN STRESS PERIOD    1
                    SECONDS     MINUTES      HOURS       DAYS        YEARS
                    -----------------------------------------------------------
   TIME STEP LENGTH 3.15576E+07 5.25960E+05  8766.0      365.25      1.0000    
 STRESS PERIOD TIME 1.26230E+10 2.10384E+08 3.50640E+06 1.46100E+05  400.00    
         TOTAL TIME 1.26230E+10 2.10384E+08 3.50640E+06 1.46100E+05  400.00    
1

 HEAD AND DRAWDOWN OBSERVATIONS
 OBSERVATION       OBSERVED           SIMULATED
   NAME              VALUE              VALUE             DIFFERENCE
 --------------------------------------------------------------------
 Obs_0           5.5000000000        2.8455281258        2.6544718742    
 Obs_1          0.20000000298       0.33201399446      -0.13201399148    
 Obs_2          0.40000000596       0.30462872982       9.53712761402E-02
 Obs_3          0.30000001192       0.17571751773       0.12428249419    
 Obs_4          0.60000002384       0.19894956052       0.40105044842    
 Obs_5           2.2999999523       0.53731477261        1.7626851797    
 Obs_6           2.5999999046       0.47717264295        2.1228272915    
 Obs_7           3.5000000000        1.2216178179        2.2783823013    
 Obs_8           1.2000000477       0.45472955704       0.74527049065    
 Obs_9           3.5999999046        2.4031207561        1.1968791485    
 Obs_10          1.5000000000       0.52502113581       0.97497886419    
 Obs_11          1.8999999762        1.6088428497       0.29115712643    
 Obs_12          1.2999999523        2.9781978130       -1.6781978607    
 Obs_13         0.89999997616        1.5988085270      -0.69880855083    
 Obs_14          44.700000763        4.3425793648        40.357421875    
 Obs_15          2.5999999046        1.5642493963        1.0357505083    
 Obs_16          1.7000000477        1.5178997517       0.18210029602    
 Obs_17          3.0000000000        3.8120117188      -0.81201171875    
 Obs_18          1.7999999523        1.5020598173       0.29794013500    
 Obs_19          5.9000000954        6.8437256813      -0.94372558594    
 Obs_20          19.200000763        3.8257167339        15.374283791    
 Obs_21          8.0000000000        8.0857515335      -8.57515335083E-02
 Obs_22          8.1999998093        4.5414495468        3.6585502625    
 Obs_23          5.7500000000        3.8987510204        1.8512489796    
 Obs_24          34.200000763        8.0666675568        26.133333206    
 Obs_25          3.2000000477        3.6059486866      -0.40594863892    
 Obs_26          16.500000000        8.9491243362        7.5508756638    
 Obs_27          25.399999619        5.4760479927        19.923952103    
 Obs_28          1.7999999523        3.3996405602       -1.5996406078    
 Obs_29          8.8000001907        3.3949952126        5.4050049782    
 Obs_30         0.85000002384        2.6693482399       -1.8193482161    
 Obs_31         0.89999997616        2.5574061871       -1.6574062109    
 Obs_32         0.60000002384       0.10000000149       0.50000000000    
 Obs_33          20.299999237        5.7664175034        14.533581734    
 Obs_34          1.7999999523        2.6628329754      -0.86283302307    
 Obs_35          1.9333000183        2.4635863304      -0.53028631210    
 Obs_36         0.30000001192        1.4784991741       -1.1784992218    
 Obs_37         0.50000000000       0.19467984140       0.30532014370    
 Obs_38          1.0000000000        1.0573012829      -5.73012828827E-02
 Obs_39          62.500000000        9.7714948654        52.728504181    
 Obs_40          15.800000191        3.0040724277        12.795928001    
 Obs_41          1.2000000477        5.3644332886       -4.1644334793    
 Obs_42          7.3000001907        6.1080970764        1.1919031143    
 Obs_43          7.3000001907        6.8732008934       0.42679929733    
 Obs_44          9.8000001907        7.4898743629        2.3101258278    
 Obs_45          16.466699600        8.2168445587        8.2498550415    
 Obs_46          1.2000000477        3.1385829449       -1.9385828972    
 Obs_47          3.0000000000        2.8485479355       0.15145206451    
 Obs_48          6.6500000954        4.5124611855        2.1375389099    
 Obs_49          2.7000000477        4.0513410568       -1.3513410091    
 Obs_50          6.0999999046        1.4825938940        4.6174058914    
 Obs_51         0.10000000149       0.10000000149        0.0000000000    
 Obs_52          8.1000003815        3.6782798767        4.4217205048    
 Obs_53          8.1999998093        3.6476707458        4.5523290634    
 Obs_54          4.3000001907        4.7098665237      -0.40986633301    
 Obs_55          5.5666999817        4.3921751976        1.1745247841    
 Obs_56          5.5000000000        5.0648999214       0.43510007858    
 Obs_57          7.3000001907        2.8388154507        4.4611845016    
 Obs_58          6.0000000000        1.9901212454        4.0098786354    
 Obs_59          2.7000000477       0.49687996507        2.2031199932    
 Obs_60          5.3000001907       0.50245493650        4.7975454330    
 Obs_61          3.0999999046        1.0075484514        2.0924515724    
 Obs_62          3.0000000000       0.62896668911        2.3710331917    
 Obs_63          5.6999998093       0.45248803496        5.2475118637    

 HEAD/DRAWDOWN SUM OF SQUARED DIFFERENCE:    6.51122E+03

 Run end date and time (yyyy/mm/dd hh:mm:ss): 2019/08/01 16:17:21
 Elapsed run time:  9.971 Seconds

