                                  MODFLOW-NWT-SWR1 
      U.S. GEOLOGICAL SURVEY MODULAR FINITE-DIFFERENCE GROUNDWATER-FLOW MODEL
                             VERSION 1.1.4 4/01/2018
                    BASED ON MODFLOW-2005 VERSION 1.12.00 02/03/2017

 LIST FILE: Tutuila_03.list
                         UNIT    2

 OPENING Tutuila_03.dis
 FILE TYPE:DIS   UNIT   11   STATUS:OLD    
 FORMAT:FORMATTED              ACCESS:SEQUENTIAL          

 OPENING Tutuila_03.bas
 FILE TYPE:BAS6   UNIT   13   STATUS:OLD    
 FORMAT:FORMATTED              ACCESS:SEQUENTIAL          

 OPENING Tutuila_03.lpf
 FILE TYPE:LPF   UNIT   15   STATUS:OLD    
 FORMAT:FORMATTED              ACCESS:SEQUENTIAL          

 OPENING Tutuila_03.rch
 FILE TYPE:RCH   UNIT   19   STATUS:OLD    
 FORMAT:FORMATTED              ACCESS:SEQUENTIAL          

 OPENING Tutuila_03.hob
 FILE TYPE:HOB   UNIT   39   STATUS:OLD    
 FORMAT:FORMATTED              ACCESS:SEQUENTIAL          

 OPENING Tutuila_03.oc
 FILE TYPE:OC   UNIT   14   STATUS:OLD    
 FORMAT:FORMATTED              ACCESS:SEQUENTIAL          

 OPENING Tutuila_03.pcg
 FILE TYPE:PCG   UNIT   27   STATUS:OLD    
 FORMAT:FORMATTED              ACCESS:SEQUENTIAL          

 OPENING Tutuila_03.cbc
 FILE TYPE:DATA(BINARY)   UNIT   53   STATUS:REPLACE
 FORMAT:BINARY                 ACCESS:SEQUENTIAL          

 OPENING Tutuila_03.hob.out
 FILE TYPE:DATA   UNIT    7   STATUS:UNKNOWN
 FORMAT:FORMATTED              ACCESS:SEQUENTIAL          

 OPENING Tutuila_03.hds
 FILE TYPE:DATA(BINARY)   UNIT   51   STATUS:REPLACE
 FORMAT:BINARY                 ACCESS:SEQUENTIAL          

 BAS -- BASIC PACKAGE, VERSION 1.1.4, 4/01/2018 INPUT READ FROM UNIT   13
 
 MODFLOW was compiled using mixed precision
 Precision of REAL variables:           6
 Precision of DOUBLE PRECISION variables:          15

 DISCRETIZATION INPUT DATA READ FROM UNIT   11
 # DIS package for  MODFLOW-2005, generated by Flopy.
    1 LAYERS        75 ROWS       100 COLUMNS
    1 STRESS PERIOD(S) IN SIMULATION
 MODEL TIME UNIT IS DAYS
 MODEL LENGTH UNIT IS METERS
  Confining bed flag for each layer:
   0

                     DELR =   339.000    

                     DELC =   220.000    

 TOP ELEVATION OF LAYER 1 =   1000.00    

   MODEL LAYER BOTTOM EL. =  -300.000     FOR LAYER   1


 STRESS PERIOD     LENGTH       TIME STEPS     MULTIPLIER FOR DELT    SS FLAG
 ----------------------------------------------------------------------------
        1         1.000000          1                    1.000         SS

 STEADY-STATE SIMULATION



 
 # BAS6 package for  MODFLOW-2005, generated by Flopy.                           
 THE FREE FORMAT OPTION HAS BEEN SELECTED



                     BOUNDARY ARRAY FOR LAYER   1
 READING ON UNIT   13 WITH FORMAT: (100I10)            

 AQUIFER HEAD WILL BE SET TO  -999.99     AT ALL NO-FLOW NODES (IBOUND=0).

             INITIAL HEAD =   1.00000     FOR LAYER   1
 # OC package for  MODFLOW-2005, generated by Flopy.

 OUTPUT CONTROL IS SPECIFIED ONLY AT TIME STEPS FOR WHICH OUTPUT IS DESIRED
 COMPACT CELL-BY-CELL BUDGET FILES WILL BE WRITTEN
 AUXILIARY DATA WILL BE SAVED IN CELL-BY-CELL BUDGET FILES
 HEAD PRINT FORMAT CODE IS   0    DRAWDOWN PRINT FORMAT CODE IS   0
 HEADS WILL BE SAVED ON UNIT   51    DRAWDOWNS WILL BE SAVED ON UNIT    0

 LPF -- LAYER-PROPERTY FLOW PACKAGE, VERSION 7, 5/2/2005
         INPUT READ FROM UNIT   15
 # LPF package for  MODFLOW-2005, generated by Flopy.
 CELL-BY-CELL FLOWS WILL BE SAVED ON UNIT   53
 HEAD AT CELLS THAT CONVERT TO DRY= -1.00000E+30
 No named parameters

   LAYER FLAGS:
 LAYER       LAYTYP        LAYAVG         CHANI        LAYVKA        LAYWET
 ---------------------------------------------------------------------------
    1             0             0     1.000E+00             0             0

   INTERPRETATION OF LAYER FLAGS:
                        INTERBLOCK     HORIZONTAL    DATA IN
         LAYER TYPE   TRANSMISSIVITY   ANISOTROPY   ARRAY VKA   WETTABILITY
 LAYER      (LAYTYP)      (LAYAVG)       (CHANI)      (LAYVKA)      (LAYWET)
 ---------------------------------------------------------------------------
    1      CONFINED      HARMONIC     1.000E+00    VERTICAL K  NON-WETTABLE

 WETTING CAPABILITY IS NOT ACTIVE IN ANY LAYER



              HYD. COND. ALONG ROWS FOR LAYER   1
 READING ON UNIT   15 WITH FORMAT: (100E15.6)          



                VERTICAL HYD. COND. FOR LAYER   1
 READING ON UNIT   15 WITH FORMAT: (100E15.6)          

 RCH -- RECHARGE PACKAGE, VERSION 7, 5/2/2005 INPUT READ FROM UNIT   19
 # RCH package for  MODFLOW-2005, generated by Flopy.
 No named parameters
 OPTION 3 -- RECHARGE TO HIGHEST ACTIVE NODE IN EACH VERTICAL COLUMN


     0 Recharge parameters

 PCG -- CONJUGATE-GRADIENT SOLUTION PACKAGE, VERSION 7, 5/2/2005
 # PCG package for  MODFLOW-2005, generated by Flopy.
 MAXIMUM OF     50 CALLS OF SOLUTION ROUTINE
 MAXIMUM OF     30 INTERNAL ITERATIONS PER CALL TO SOLUTION ROUTINE
 MATRIX PRECONDITIONING TYPE :    1



                                    SOLUTION BY THE CONJUGATE-GRADIENT METHOD
                                   -------------------------------------------
                    MAXIMUM NUMBER OF CALLS TO PCG ROUTINE =       50
                        MAXIMUM ITERATIONS PER CALL TO PCG =       30
                               MATRIX PRECONDITIONING TYPE =        1
        RELAXATION FACTOR (ONLY USED WITH PRECOND. TYPE 1) =    0.10000E+01
 PARAMETER OF POLYNOMIAL PRECOND. = 2 (2) OR IS CALCULATED :        0
                         HEAD CHANGE CRITERION FOR CLOSURE =    0.10000E-04
                     RESIDUAL CHANGE CRITERION FOR CLOSURE =    0.10000E-04
            PCG HEAD AND RESIDUAL CHANGE PRINTOUT INTERVAL =      999
     PRINTING FROM SOLVER IS LIMITED(1) OR SUPPRESSED (>1) =        3
                            STEADY-STATE DAMPING PARAMETER =    0.10000E+01
                               TRANSIENT DAMPING PARAMETER =    0.10000E+01

 OBS2BAS7 -- HEAD OBSERVATIONS, VERSION 2.0, 2/28/2006
 INPUT READ FROM UNIT  39
 # HOB package for  MODFLOW-2005, generated by Flopy.

 NUMBER OF HEADS....................................:   58
   NUMBER OF MULTILAYER HEADS.......................:    0
   MAXIMUM NUMBER OF LAYERS FOR MULTILAYER HEADS....:    0
 HEAD OBSERVATIONS WILL BE SAVED ON UNIT............:    7
 SIMULATED EQUIVALENT HEAD AT DRY CELLS WILL BE:   -999.000    

 OBSERVED HEAD DATA -- TIME OFFSETS ARE MULTIPLIED BY:   1.0000    

                    REFER.
       OBSERVATION  STRESS    TIME
  OBS#    NAME      PERIOD   OFFSET    OBSERVATION
     1 FLI182           1    0.000       5.500    
 Observation within a steady-state time step has been moved to the end of the time step.
     2 214601           1    0.000      0.2000    
 Observation within a steady-state time step has been moved to the end of the time step.
     3 214602           1    0.000      0.4000    
 Observation within a steady-state time step has been moved to the end of the time step.
     4 Taputimuwind     1    0.000      0.3000    
 Observation within a steady-state time step has been moved to the end of the time step.
     5 214604           1    0.000      0.6000    
 Observation within a steady-state time step has been moved to the end of the time step.
     6 Malaeloa70       1    0.000       2.600    
 Observation within a steady-state time step has been moved to the end of the time step.
     7 MOA15            1    0.000       2.300    
 Observation within a steady-state time step has been moved to the end of the time step.
     8 MOA169           1    0.000       3.500    
 Observation within a steady-state time step has been moved to the end of the time step.
     9 Puapua47         1    0.000       1.200    
 Observation within a steady-state time step has been moved to the end of the time step.
    10 TGH1             1    0.000       3.600    
 Observation within a steady-state time step has been moved to the end of the time step.
    11 Malaeloa92       1    0.000       1.200    
 Observation within a steady-state time step has been moved to the end of the time step.
    12 Malaeloa91       1    0.000       1.800    
 Observation within a steady-state time step has been moved to the end of the time step.
    13 TGH3             1    0.000       1.900    
 Observation within a steady-state time step has been moved to the end of the time step.
    14 PAV177           1    0.000       1.300    
 Observation within a steady-state time step has been moved to the end of the time step.
    15 Iliili79         1    0.000      0.9000    
 Observation within a steady-state time step has been moved to the end of the time step.
    16 Iliili62         1    0.000       2.600    
 Observation within a steady-state time step has been moved to the end of the time step.
    17 MES6             1    0.000       44.70    
 Observation within a steady-state time step has been moved to the end of the time step.
    18 ILI76            1    0.000       1.600    
 Observation within a steady-state time step has been moved to the end of the time step.
    19 Iliili74         1    0.000       1.800    
 Observation within a steady-state time step has been moved to the end of the time step.
    20 194407           1    0.000       3.000    
 Observation within a steady-state time step has been moved to the end of the time step.
    21 Iliili84         1    0.000       1.800    
 Observation within a steady-state time step has been moved to the end of the time step.
    22 MMI3             1    0.000       5.900    
 Observation within a steady-state time step has been moved to the end of the time step.
    23 Malaeimi109      1    0.000       8.200    
 Observation within a steady-state time step has been moved to the end of the time step.
    24 Malaeimi89       1    0.000       6.000    
 Observation within a steady-state time step has been moved to the end of the time step.
    25 Malaeimi67       1    0.000       3.200    
 Observation within a steady-state time step has been moved to the end of the time step.
    26 MMI4             1    0.000       16.50    
 Observation within a steady-state time step has been moved to the end of the time step.
    27 194409           1    0.000       25.40    
 Observation within a steady-state time step has been moved to the end of the time step.
    28 214301           1    0.000      0.6000    
 Observation within a steady-state time step has been moved to the end of the time step.
    29 MMI1             1    0.000       20.30    
 Observation within a steady-state time step has been moved to the end of the time step.
    30 TAF72            1    0.000       1.800    
 Observation within a steady-state time step has been moved to the end of the time step.
    31 204301           1    0.000      0.3000    
 Observation within a steady-state time step has been moved to the end of the time step.
    32 204302           1    0.000      0.5000    
 Observation within a steady-state time step has been moved to the end of the time step.
    33 194302           1    0.000       1.000    
 Observation within a steady-state time step has been moved to the end of the time step.
    34 VAI183           1    0.000       62.50    
 Observation within a steady-state time step has been moved to the end of the time step.
    35 NUULI24B         1    0.000       15.80    
 Observation within a steady-state time step has been moved to the end of the time step.
    36 Pago100(wate     1    0.000       1.200    
 Observation within a steady-state time step has been moved to the end of the time step.
    37 PAGO163          1    0.000       7.300    
 Observation within a steady-state time step has been moved to the end of the time step.
    38 PAGOTANK24       1    0.000       1.200    
 Observation within a steady-state time step has been moved to the end of the time step.
    39 Pagoplaza12      1    0.000       3.000    
 Observation within a steady-state time step has been moved to the end of the time step.
    40 FALU179          1    0.000       2.700    
 Observation within a steady-state time step has been moved to the end of the time step.
    41 174101           1    0.000       6.100    
 Observation within a steady-state time step has been moved to the end of the time step.
    42 UTULEI3          1    0.000      0.1000    
 Observation within a steady-state time step has been moved to the end of the time step.
    43 Sailele130       1    0.000       2.700    
 Observation within a steady-state time step has been moved to the end of the time step.
    44 163502           1    0.000       5.300    
 Observation within a steady-state time step has been moved to the end of the time step.
    45 163301           1    0.000       5.700    
 Observation within a steady-state time step has been moved to the end of the time step.
    46 MALAEIMI88       1    0.000       12.35    
 Observation within a steady-state time step has been moved to the end of the time step.
    47 MMI2             1    0.000       21.10    
 Observation within a steady-state time step has been moved to the end of the time step.
    48 Malaeimi69       1    0.000       5.300    
 Observation within a steady-state time step has been moved to the end of the time step.
    49 194311           1    0.000      0.8750    
 Observation within a steady-state time step has been moved to the end of the time step.
    50 194304           1    0.000       1.933    
 Observation within a steady-state time step has been moved to the end of the time step.
    51 164204           1    0.000       9.175    
 Observation within a steady-state time step has been moved to the end of the time step.
    52 Pago107          1    0.000       16.47    
 Observation within a steady-state time step has been moved to the end of the time step.
    53 Fagatogo102      1    0.000       6.650    
 Observation within a steady-state time step has been moved to the end of the time step.
    54 VATI170          1    0.000       8.150    
 Observation within a steady-state time step has been moved to the end of the time step.
    55 163903           1    0.000       5.567    
 Observation within a steady-state time step has been moved to the end of the time step.
    56 AUA98            1    0.000       4.900    
 Observation within a steady-state time step has been moved to the end of the time step.
    57 LAU96            1    0.000       6.650    
 Observation within a steady-state time step has been moved to the end of the time step.
    58 153401           1    0.000       3.050    
 Observation within a steady-state time step has been moved to the end of the time step.

                                                     HEAD CHANGE
                                                      REFERENCE
        OBSERVATION                   ROW     COL    OBSERVATION
  OBS#     NAME       LAY  ROW  COL  OFFSET  OFFSET   (IF > 0)
     1  FLI182          1   42   12   0.000   0.000        0
     2  214601          1   59   26   0.000   0.000        0
     3  214602          1   61   27   0.000   0.000        0
     4  Taputimuwind    1   65   27   0.000   0.000        0
     5  214604          1   64   27   0.000   0.000        0
     6  Malaeloa70      1   56   28   0.000   0.000        0
     7  MOA15           1   53   28   0.000   0.000        0
     8  MOA169          1   53   29   0.000   0.000        0
     9  Puapua47        1   58   29   0.000   0.000        0
    10  TGH1            1   53   30   0.000   0.000        0
    11  Malaeloa92      1   58   30   0.000   0.000        0
    12  Malaeloa91      1   57   31   0.000   0.000        0
    13  TGH3            1   60   35   0.000   0.000        0
    14  PAV177          1   54   36   0.000   0.000        0
    15  Iliili79        1   59   36   0.000   0.000        0
    16  Iliili62        1   60   36   0.000   0.000        0
    17  MES6            1   48   37   0.000   0.000        0
    18  ILI76           1   59   37   0.000   0.000        0
    19  Iliili74        1   60   37   0.000   0.000        0
    20  194407          1   47   38   0.000   0.000        0
    21  Iliili84        1   59   38   0.000   0.000        0
    22  MMI3            1   43   39   0.000   0.000        0
    23  Malaeimi109     1   44   39   0.000   0.000        0
    24  Malaeimi89      1   45   40   0.000   0.000        0
    25  Malaeimi67      1   46   40   0.000   0.000        0
    26  MMI4            1   40   41   0.000   0.000        0
    27  194409          1   43   41   0.000   0.000        0
    28  214301          1   63   41   0.000   0.000        0
    29  MMI1            1   42   42   0.000   0.000        0
    30  TAF72           1   47   42   0.000   0.000        0
    31  204301          1   51   43   0.000   0.000        0
    32  204302          1   57   44   0.000   0.000        0
    33  194302          1   47   45   0.000   0.000        0
    34  VAI183          1   27   49   0.000   0.000        0
    35  NUULI24B        1   38   49   0.000   0.000        0
    36  Pago100(wate    1   22   50   0.000   0.000        0
    37  PAGO163         1   23   50   0.000   0.000        0
    38  PAGOTANK24      1   21   50   0.000   0.000        0
    39  Pagoplaza12     1   22   51   0.000   0.000        0
    40  FALU179         1   32   56   0.000   0.000        0
    41  174101          1   31   57   0.000   0.000        0
    42  UTULEI3         1   26   57   0.000   0.000        0
    43  Sailele130      1   15   85   0.000   0.000        0
    44  163502          1   23   87   0.000   0.000        0
    45  163301          1   18   94   0.000   0.000        0
    46  MALAEIMI88      1   45   39   0.000   0.000        0
    47  MMI2            1   41   40   0.000   0.000        0
    48  Malaeimi69      1   45   41   0.000   0.000        0
    49  194311          1   49   41   0.000   0.000        0
    50  194304          1   48   42   0.000   0.000        0
    51  164204          1   24   50   0.000   0.000        0
    52  Pago107         1   25   50   0.000   0.000        0
    53  Fagatogo102     1   26   54   0.000   0.000        0
    54  VATI170         1   13   62   0.000   0.000        0
    55  163903          1   21   64   0.000   0.000        0
    56  AUA98           1   20   64   0.000   0.000        0
    57  LAU96           1   28   67   0.000   0.000        0
    58  153401          1   12   94   0.000   0.000        0
1
                            STRESS PERIOD NO.    1, LENGTH =   1.000000    
                            -----------------------------------------------

                              NUMBER OF TIME STEPS =     1

                               MULTIPLIER FOR DELT =     1.000

                            INITIAL TIME STEP SIZE =   1.000000    



                           RECHARGE
 READING ON UNIT   19 WITH FORMAT: (100E15.6)          
 
 SOLVING FOR HEAD 

 OUTPUT CONTROL FOR STRESS PERIOD    1   TIME STEP    1
    PRINT HEAD FOR ALL LAYERS
    PRINT BUDGET
    SAVE HEAD FOR ALL LAYERS
    SAVE BUDGET
 UBDSV2 SAVING "   CONSTANT HEAD" ON UNIT  53 AT TIME STEP  1, STRESS PERIOD   1
 UBDSV1 SAVING "FLOW RIGHT FACE " ON UNIT  53 AT TIME STEP  1, STRESS PERIOD   1
 UBDSV1 SAVING "FLOW FRONT FACE " ON UNIT  53 AT TIME STEP  1, STRESS PERIOD   1
1
              HEAD IN LAYER   1 AT END OF TIME STEP   1 IN STRESS PERIOD    1
  ---------------------------------------------------------------------------

            1           2           3           4           5           6           7           8           9          10
           11          12          13          14          15          16          17          18          19          20
           21          22          23          24          25          26          27          28          29          30
           31          32          33          34          35          36          37          38          39          40
           41          42          43          44          45          46          47          48          49          50
           51          52          53          54          55          56          57          58          59          60
           61          62          63          64          65          66          67          68          69          70
           71          72          73          74          75          76          77          78          79          80
           81          82          83          84          85          86          87          88          89          90
           91          92          93          94          95          96          97          98          99         100
 ........................................................................................................................
   1  -1000.0     -1000.0     -1000.0     -1000.0     -1000.0     -1000.0     -1000.0     -1000.0     -1000.0     -1000.0    
      -1000.0     -1000.0     -1000.0     -1000.0     -1000.0     -1000.0     -1000.0     -1000.0     -1000.0     -1000.0    
      -1000.0     -1000.0     -1000.0     -1000.0     -1000.0     -1000.0     -1000.0     -1000.0     -1000.0     -1000.0    
      -1000.0     -1000.0     -1000.0     -1000.0     -1000.0     -1000.0     -1000.0     -1000.0     -1000.0     -1000.0    
      -1000.0     -1000.0     -1000.0     -1000.0     -1000.0     -1000.0     -1000.0     -1000.0     -1000.0     -1000.0    
      -1000.0     -1000.0     -1000.0     -1000.0     -1000.0     -1000.0     -1000.0     -1000.0     -1000.0     -1000.0    
      -1000.0     -1000.0     -1000.0     -1000.0     -1000.0     -1000.0     -1000.0     -1000.0     -1000.0     -1000.0    
      -1000.0     -1000.0     -1000.0     -1000.0     -1000.0     -1000.0     -1000.0     -1000.0     -1000.0     -1000.0    
      -1000.0     -1000.0     -1000.0     -1000.0     -1000.0     -1000.0     -1000.0     -1000.0     -1000.0     -1000.0    
      -1000.0     -1000.0     -1000.0     -1000.0     -1000.0     -1000.0     -1000.0     -1000.0     -1000.0     -1000.0    
   2  -1000.0     -1000.0     -1000.0     -1000.0     -1000.0     -1000.0     -1000.0     -1000.0     -1000.0     -1000.0    
      -1000.0     -1000.0     -1000.0     -1000.0     -1000.0     -1000.0     -1000.0     -1000.0     -1000.0     -1000.0    
      -1000.0     -1000.0     -1000.0     -1000.0     -1000.0     -1000.0     -1000.0     -1000.0     -1000.0     -1000.0    
      -1000.0     -1000.0     -1000.0     -1000.0     -1000.0     -1000.0     -1000.0     -1000.0     -1000.0     -1000.0    
      -1000.0     -1000.0     -1000.0     -1000.0     -1000.0     -1000.0     -1000.0     -1000.0     -1000.0     -1000.0    
      -1000.0     -1000.0     -1000.0     -1000.0     -1000.0     -1000.0     -1000.0     -1000.0     -1000.0     -1000.0    
      -1000.0     -1000.0     -1000.0     -1000.0     -1000.0     -1000.0     -1000.0     -1000.0     -1000.0     -1000.0    
      -1000.0     -1000.0     -1000.0     -1000.0     -1000.0     -1000.0     -1000.0     -1000.0     -1000.0     -1000.0    
      -1000.0     -1000.0     -1000.0     -1000.0     -1000.0     -1000.0     -1000.0     -1000.0     -1000.0     -1000.0    
      -1000.0     -1000.0     -1000.0     -1000.0     -1000.0     -1000.0     -1000.0     -1000.0     -1000.0     -1000.0    
   3  -1000.0     -1000.0     -1000.0     -1000.0     -1000.0     -1000.0     -1000.0     -1000.0     -1000.0     -1000.0    
      -1000.0     -1000.0     -1000.0     -1000.0     -1000.0     -1000.0     -1000.0     -1000.0     -1000.0     -1000.0    
      -1000.0     -1000.0     -1000.0     -1000.0     -1000.0     -1000.0     -1000.0     -1000.0     -1000.0     -1000.0    
      -1000.0     -1000.0     -1000.0     -1000.0     -1000.0     -1000.0     -1000.0     -1000.0     -1000.0     -1000.0    
      -1000.0     -1000.0     -1000.0     -1000.0     -1000.0     -1000.0     -1000.0     -1000.0     -1000.0     -1000.0    
      -1000.0     -1000.0     -1000.0     -1000.0     -1000.0     -1000.0     -1000.0     -1000.0     -1000.0     -1000.0    
      -1000.0     -1000.0     -1000.0     -1000.0     -1000.0     -1000.0     -1000.0     -1000.0     -1000.0     -1000.0    
      -1000.0     -1000.0     -1000.0     -1000.0     -1000.0     -1000.0     -1000.0     -1000.0     -1000.0     -1000.0    
      -1000.0     -1000.0     -1000.0     -1000.0     -1000.0     -1000.0     -1000.0     -1000.0     -1000.0     -1000.0    
      -1000.0     -1000.0     -1000.0     -1000.0     -1000.0     -1000.0     -1000.0     -1000.0     -1000.0     -1000.0    
   4  -1000.0     -1000.0     -1000.0     -1000.0     -1000.0     -1000.0     -1000.0     -1000.0     -1000.0     -1000.0    
      -1000.0     -1000.0     -1000.0     -1000.0     -1000.0     -1000.0     -1000.0     -1000.0     -1000.0     -1000.0    
      -1000.0     -1000.0     -1000.0     -1000.0     -1000.0     -1000.0     -1000.0     -1000.0     -1000.0     -1000.0    
      -1000.0     -1000.0     -1000.0     -1000.0     -1000.0     -1000.0     -1000.0     -1000.0     -1000.0     -1000.0    
      -1000.0     -1000.0     -1000.0     -1000.0     -1000.0     -1000.0     -1000.0     -1000.0     -1000.0     -1000.0    
      -1000.0     -1000.0     -1000.0     -1000.0     -1000.0     -1000.0     -1000.0     -1000.0     -1000.0       1.000    
      -1000.0     -1000.0     -1000.0     -1000.0     -1000.0     -1000.0     -1000.0     -1000.0     -1000.0     -1000.0    
      -1000.0     -1000.0     -1000.0     -1000.0     -1000.0     -1000.0     -1000.0     -1000.0     -1000.0     -1000.0    
      -1000.0     -1000.0     -1000.0     -1000.0     -1000.0     -1000.0     -1000.0     -1000.0     -1000.0     -1000.0    
      -1000.0     -1000.0     -1000.0     -1000.0     -1000.0     -1000.0     -1000.0     -1000.0     -1000.0     -1000.0    
   5  -1000.0     -1000.0     -1000.0     -1000.0     -1000.0     -1000.0     -1000.0     -1000.0     -1000.0     -1000.0    
      -1000.0     -1000.0     -1000.0     -1000.0     -1000.0     -1000.0     -1000.0     -1000.0     -1000.0     -1000.0    
      -1000.0     -1000.0     -1000.0     -1000.0     -1000.0     -1000.0     -1000.0     -1000.0     -1000.0     -1000.0    
      -1000.0     -1000.0     -1000.0     -1000.0     -1000.0     -1000.0     -1000.0     -1000.0     -1000.0     -1000.0    
      -1000.0     -1000.0     -1000.0     -1000.0     -1000.0     -1000.0     -1000.0     -1000.0     -1000.0     -1000.0    
      -1000.0     -1000.0     -1000.0     -1000.0     -1000.0     -1000.0     -1000.0     -1000.0       1.000       1.000    
      -1000.0     -1000.0     -1000.0     -1000.0     -1000.0     -1000.0     -1000.0     -1000.0     -1000.0     -1000.0    
      -1000.0     -1000.0     -1000.0     -1000.0     -1000.0     -1000.0     -1000.0     -1000.0     -1000.0     -1000.0    
      -1000.0     -1000.0     -1000.0     -1000.0     -1000.0     -1000.0     -1000.0     -1000.0     -1000.0     -1000.0    
      -1000.0     -1000.0     -1000.0     -1000.0     -1000.0     -1000.0     -1000.0     -1000.0     -1000.0     -1000.0    
   6  -1000.0     -1000.0     -1000.0     -1000.0     -1000.0     -1000.0     -1000.0     -1000.0     -1000.0     -1000.0    
      -1000.0     -1000.0     -1000.0     -1000.0     -1000.0     -1000.0     -1000.0     -1000.0     -1000.0     -1000.0    
      -1000.0     -1000.0     -1000.0     -1000.0     -1000.0     -1000.0     -1000.0     -1000.0     -1000.0     -1000.0    
      -1000.0     -1000.0     -1000.0     -1000.0     -1000.0     -1000.0     -1000.0     -1000.0     -1000.0     -1000.0    
      -1000.0     -1000.0     -1000.0     -1000.0     -1000.0     -1000.0     -1000.0     -1000.0     -1000.0     -1000.0    
      -1000.0     -1000.0     -1000.0     -1000.0     -1000.0     -1000.0     -1000.0       1.000       1.068       1.000    
      -1000.0     -1000.0     -1000.0     -1000.0     -1000.0     -1000.0     -1000.0     -1000.0     -1000.0     -1000.0    
      -1000.0     -1000.0     -1000.0     -1000.0     -1000.0     -1000.0     -1000.0     -1000.0     -1000.0     -1000.0    
      -1000.0     -1000.0     -1000.0     -1000.0     -1000.0     -1000.0     -1000.0     -1000.0     -1000.0     -1000.0    
      -1000.0     -1000.0     -1000.0     -1000.0     -1000.0     -1000.0     -1000.0     -1000.0     -1000.0     -1000.0    
   7  -1000.0     -1000.0     -1000.0     -1000.0     -1000.0     -1000.0     -1000.0     -1000.0     -1000.0     -1000.0    
      -1000.0     -1000.0     -1000.0     -1000.0     -1000.0     -1000.0     -1000.0     -1000.0     -1000.0     -1000.0    
      -1000.0     -1000.0     -1000.0     -1000.0     -1000.0     -1000.0     -1000.0     -1000.0     -1000.0     -1000.0    
      -1000.0     -1000.0     -1000.0     -1000.0     -1000.0     -1000.0     -1000.0     -1000.0     -1000.0     -1000.0    
      -1000.0     -1000.0     -1000.0     -1000.0     -1000.0     -1000.0     -1000.0     -1000.0     -1000.0     -1000.0    
      -1000.0     -1000.0     -1000.0     -1000.0     -1000.0       1.000       1.000       1.000       1.258       1.000    
      -1000.0     -1000.0     -1000.0     -1000.0     -1000.0     -1000.0     -1000.0     -1000.0     -1000.0     -1000.0    
      -1000.0     -1000.0     -1000.0     -1000.0     -1000.0     -1000.0     -1000.0     -1000.0     -1000.0     -1000.0    
      -1000.0     -1000.0     -1000.0     -1000.0     -1000.0     -1000.0     -1000.0     -1000.0     -1000.0     -1000.0    
      -1000.0     -1000.0     -1000.0     -1000.0     -1000.0     -1000.0     -1000.0     -1000.0     -1000.0     -1000.0    
   8  -1000.0     -1000.0     -1000.0     -1000.0     -1000.0     -1000.0     -1000.0     -1000.0     -1000.0     -1000.0    
      -1000.0     -1000.0     -1000.0     -1000.0     -1000.0     -1000.0     -1000.0     -1000.0     -1000.0     -1000.0    
      -1000.0     -1000.0     -1000.0     -1000.0     -1000.0     -1000.0     -1000.0     -1000.0     -1000.0     -1000.0    
      -1000.0     -1000.0     -1000.0     -1000.0     -1000.0     -1000.0     -1000.0     -1000.0     -1000.0     -1000.0    
      -1000.0     -1000.0     -1000.0     -1000.0     -1000.0     -1000.0     -1000.0     -1000.0     -1000.0     -1000.0    
      -1000.0     -1000.0     -1000.0     -1000.0       1.000       1.000       1.000       1.990       1.000       1.000    
      -1000.0       1.000       1.000       1.000     -1000.0     -1000.0     -1000.0     -1000.0     -1000.0     -1000.0    
      -1000.0     -1000.0     -1000.0     -1000.0     -1000.0     -1000.0     -1000.0     -1000.0     -1000.0     -1000.0    
      -1000.0     -1000.0     -1000.0     -1000.0     -1000.0     -1000.0     -1000.0     -1000.0     -1000.0       1.000    
      -1000.0     -1000.0     -1000.0       1.000       1.000     -1000.0     -1000.0     -1000.0     -1000.0     -1000.0    
   9  -1000.0     -1000.0     -1000.0     -1000.0     -1000.0     -1000.0     -1000.0     -1000.0     -1000.0     -1000.0    
      -1000.0     -1000.0     -1000.0     -1000.0     -1000.0     -1000.0     -1000.0     -1000.0     -1000.0     -1000.0    
      -1000.0     -1000.0     -1000.0     -1000.0     -1000.0     -1000.0     -1000.0     -1000.0     -1000.0     -1000.0    
      -1000.0     -1000.0     -1000.0     -1000.0     -1000.0     -1000.0     -1000.0     -1000.0     -1000.0     -1000.0    
      -1000.0     -1000.0     -1000.0     -1000.0     -1000.0     -1000.0     -1000.0     -1000.0     -1000.0     -1000.0    
      -1000.0     -1000.0     -1000.0       1.000       1.000       1.000       3.107       2.986       1.000     -1000.0    
        1.000       1.000       1.000       1.000     -1000.0       1.000     -1000.0     -1000.0     -1000.0       1.000    
      -1000.0       1.000     -1000.0       1.000     -1000.0     -1000.0     -1000.0     -1000.0     -1000.0     -1000.0    
      -1000.0     -1000.0     -1000.0     -1000.0     -1000.0     -1000.0     -1000.0     -1000.0     -1000.0       1.000    
        1.000       1.000       1.000       1.000       1.000     -1000.0     -1000.0     -1000.0     -1000.0     -1000.0    
  10  -1000.0     -1000.0     -1000.0     -1000.0     -1000.0     -1000.0     -1000.0     -1000.0     -1000.0     -1000.0    
      -1000.0     -1000.0     -1000.0     -1000.0     -1000.0     -1000.0     -1000.0     -1000.0     -1000.0     -1000.0    
      -1000.0     -1000.0     -1000.0     -1000.0     -1000.0     -1000.0     -1000.0     -1000.0     -1000.0     -1000.0    
      -1000.0     -1000.0     -1000.0     -1000.0     -1000.0     -1000.0     -1000.0     -1000.0     -1000.0     -1000.0    
      -1000.0     -1000.0     -1000.0     -1000.0     -1000.0     -1000.0     -1000.0     -1000.0     -1000.0     -1000.0    
      -1000.0     -1000.0       1.000       1.000       1.667       3.703       5.299       4.495       1.000       1.000    
        1.000       3.304       2.720       1.000       1.000       1.000     -1000.0       1.000       1.000       1.000    
        1.000       1.000       1.000       1.000       1.000     -1000.0     -1000.0     -1000.0     -1000.0     -1000.0    
      -1000.0     -1000.0     -1000.0     -1000.0     -1000.0     -1000.0     -1000.0       1.000       1.000       2.073    
        2.900       2.068       1.502       1.000     -1000.0     -1000.0     -1000.0     -1000.0     -1000.0     -1000.0    
  11  -1000.0     -1000.0     -1000.0     -1000.0     -1000.0     -1000.0     -1000.0     -1000.0     -1000.0     -1000.0    
      -1000.0     -1000.0     -1000.0     -1000.0     -1000.0     -1000.0     -1000.0     -1000.0     -1000.0     -1000.0    
      -1000.0     -1000.0     -1000.0     -1000.0     -1000.0     -1000.0     -1000.0     -1000.0     -1000.0     -1000.0    
      -1000.0     -1000.0     -1000.0     -1000.0     -1000.0     -1000.0     -1000.0     -1000.0     -1000.0     -1000.0    
      -1000.0     -1000.0     -1000.0     -1000.0     -1000.0     -1000.0     -1000.0     -1000.0     -1000.0     -1000.0    
      -1000.0     -1000.0       1.000       1.000       1.000       5.646       7.594       7.160       4.074       1.000    
        4.685       5.955       4.586       1.000       1.000       1.000     -1000.0       1.000       1.000       1.000    
        3.135       2.721       1.000       1.000     -1000.0     -1000.0     -1000.0       1.000       1.000     -1000.0    
      -1000.0     -1000.0     -1000.0     -1000.0     -1000.0     -1000.0     -1000.0       1.000       1.000       2.982    
        3.659       3.219       2.310       1.000     -1000.0     -1000.0     -1000.0     -1000.0     -1000.0     -1000.0    
  12  -1000.0     -1000.0     -1000.0     -1000.0     -1000.0     -1000.0     -1000.0     -1000.0     -1000.0     -1000.0    
      -1000.0     -1000.0     -1000.0     -1000.0     -1000.0     -1000.0     -1000.0     -1000.0     -1000.0     -1000.0    
      -1000.0     -1000.0     -1000.0     -1000.0     -1000.0     -1000.0     -1000.0     -1000.0     -1000.0     -1000.0    
      -1000.0     -1000.0     -1000.0     -1000.0     -1000.0     -1000.0     -1000.0     -1000.0     -1000.0     -1000.0    
      -1000.0     -1000.0     -1000.0     -1000.0     -1000.0     -1000.0     -1000.0     -1000.0     -1000.0       1.000    
        1.000       1.000       1.000       1.000       1.000       7.676       9.816       9.815       8.220       6.915    
        8.339       8.785       7.486       4.192       2.896       1.000     -1000.0       1.000       1.000       4.369    
        5.578       4.227       1.000     -1000.0     -1000.0     -1000.0       1.000       1.000       1.000       1.000    
        1.000       1.000       1.000     -1000.0     -1000.0     -1000.0       1.000       1.659       2.558       3.845    
        4.331       4.009       2.900       1.000     -1000.0     -1000.0     -1000.0     -1000.0     -1000.0     -1000.0    
  13  -1000.0     -1000.0     -1000.0     -1000.0     -1000.0     -1000.0     -1000.0     -1000.0     -1000.0     -1000.0    
      -1000.0     -1000.0     -1000.0     -1000.0     -1000.0     -1000.0     -1000.0     -1000.0     -1000.0     -1000.0    
      -1000.0     -1000.0     -1000.0     -1000.0     -1000.0     -1000.0     -1000.0     -1000.0     -1000.0     -1000.0    
      -1000.0     -1000.0     -1000.0     -1000.0     -1000.0     -1000.0     -1000.0     -1000.0     -1000.0     -1000.0    
      -1000.0     -1000.0     -1000.0     -1000.0     -1000.0     -1000.0     -1000.0     -1000.0     -1000.0       1.000    
        2.855       4.624       5.082       5.636       6.701       10.46       11.77       11.94       11.21       10.63    
        11.25       11.33       10.26       7.816       4.721       1.000       1.000       1.000       5.368       7.910    
        8.258       5.630       1.000     -1000.0     -1000.0       1.000       1.000       2.215       1.000       1.000    
        1.000       1.000       1.000     -1000.0     -1000.0     -1000.0       1.000       1.999       3.421       4.527    
        4.865       4.548       3.318       1.000     -1000.0     -1000.0     -1000.0     -1000.0     -1000.0     -1000.0    
  14  -1000.0     -1000.0     -1000.0     -1000.0     -1000.0     -1000.0     -1000.0     -1000.0     -1000.0     -1000.0    
      -1000.0     -1000.0     -1000.0     -1000.0     -1000.0     -1000.0     -1000.0     -1000.0     -1000.0     -1000.0    
      -1000.0     -1000.0     -1000.0     -1000.0     -1000.0     -1000.0     -1000.0     -1000.0     -1000.0     -1000.0    
      -1000.0     -1000.0     -1000.0     -1000.0     -1000.0     -1000.0     -1000.0     -1000.0     -1000.0     -1000.0    
      -1000.0     -1000.0     -1000.0     -1000.0     -1000.0     -1000.0     -1000.0     -1000.0     -1000.0       1.000    
        4.243       6.999       7.985       8.877       10.06       12.31       13.00       13.18       12.89       12.72    
        13.16       13.26       12.58       10.68       6.936       1.000       1.000       6.218       9.624       11.43    
        11.21       8.178       1.000       1.000       1.000       1.000       2.934       3.650       3.122       2.499    
        1.000       2.325       2.067       1.000       1.000       1.000       1.000       1.886       3.873       5.001    
        5.261       4.887       3.650       1.766       1.000     -1000.0     -1000.0     -1000.0     -1000.0     -1000.0    
  15  -1000.0     -1000.0     -1000.0     -1000.0     -1000.0     -1000.0     -1000.0     -1000.0     -1000.0     -1000.0    
      -1000.0     -1000.0     -1000.0     -1000.0     -1000.0     -1000.0     -1000.0     -1000.0     -1000.0     -1000.0    
      -1000.0     -1000.0     -1000.0     -1000.0     -1000.0     -1000.0     -1000.0     -1000.0     -1000.0     -1000.0    
      -1000.0     -1000.0     -1000.0     -1000.0     -1000.0     -1000.0     -1000.0     -1000.0     -1000.0     -1000.0    
      -1000.0     -1000.0     -1000.0     -1000.0     -1000.0     -1000.0     -1000.0       1.000       1.000       1.000    
        5.724       8.319       9.787       10.82       11.76       12.85       13.22       13.36       13.27       13.43    
        13.98       14.44       14.39       13.28       10.82       6.605       7.922       11.27       13.67       14.86    
        14.35       11.48       6.881       4.434       4.415       4.166       4.670       4.805       4.495       4.024    
        2.953       3.950       3.773       3.070       2.301       1.000       1.000       1.000       4.142       5.310    
        5.508       5.008       3.710       1.773       1.000     -1000.0     -1000.0     -1000.0     -1000.0     -1000.0    
  16  -1000.0     -1000.0     -1000.0     -1000.0     -1000.0     -1000.0     -1000.0     -1000.0     -1000.0     -1000.0    
      -1000.0     -1000.0     -1000.0     -1000.0     -1000.0     -1000.0     -1000.0     -1000.0     -1000.0     -1000.0    
      -1000.0     -1000.0     -1000.0     -1000.0     -1000.0     -1000.0     -1000.0     -1000.0     -1000.0     -1000.0    
      -1000.0     -1000.0     -1000.0     -1000.0     -1000.0     -1000.0     -1000.0     -1000.0     -1000.0     -1000.0    
      -1000.0     -1000.0     -1000.0     -1000.0     -1000.0     -1000.0       1.000       1.000       1.000       1.000    
        6.314       8.974       10.57       11.56       12.17       12.45       12.31       12.40       12.29       12.72    
        13.64       14.67       15.52       15.45       14.38       12.83       13.74       15.73       17.33       17.86    
        17.05       14.42       10.91       8.330       7.072       6.250       5.847       5.449       5.132       4.998    
        4.935       5.279       5.103       4.584       3.649       1.000       1.000       2.909       4.686       5.497    
        5.531       4.909       3.507       1.000       1.000     -1000.0     -1000.0     -1000.0     -1000.0     -1000.0    
  17  -1000.0     -1000.0     -1000.0     -1000.0     -1000.0     -1000.0     -1000.0     -1000.0     -1000.0     -1000.0    
      -1000.0     -1000.0     -1000.0     -1000.0     -1000.0     -1000.0     -1000.0     -1000.0     -1000.0     -1000.0    
      -1000.0     -1000.0     -1000.0     -1000.0     -1000.0     -1000.0     -1000.0     -1000.0     -1000.0     -1000.0    
      -1000.0     -1000.0     -1000.0     -1000.0     -1000.0     -1000.0     -1000.0     -1000.0     -1000.0     -1000.0    
      -1000.0     -1000.0     -1000.0     -1000.0     -1000.0     -1000.0       1.000       2.810       3.200       4.258    
        6.894       8.885       10.36       11.22       11.46       11.03       10.08       9.552       9.882       10.53    
        12.00       13.77       15.81       16.94       17.21       17.17       18.00       19.30       20.30       20.40    
        19.35       16.77       13.55       10.71       8.691       7.213       6.116       5.204       4.862       5.153    
        5.916       6.024       5.983       5.691       4.901       3.602       3.874       4.264       5.093       5.505    
        5.299       4.555       3.148       1.000     -1000.0     -1000.0     -1000.0     -1000.0     -1000.0     -1000.0    
  18  -1000.0     -1000.0     -1000.0     -1000.0     -1000.0     -1000.0     -1000.0     -1000.0     -1000.0     -1000.0    
      -1000.0     -1000.0     -1000.0     -1000.0     -1000.0     -1000.0     -1000.0     -1000.0     -1000.0     -1000.0    
      -1000.0     -1000.0     -1000.0     -1000.0     -1000.0     -1000.0     -1000.0     -1000.0     -1000.0     -1000.0    
      -1000.0     -1000.0     -1000.0     -1000.0     -1000.0     -1000.0     -1000.0     -1000.0     -1000.0     -1000.0    
      -1000.0     -1000.0     -1000.0     -1000.0     -1000.0       1.000       1.000       4.743       5.536       5.763    
        6.593       7.810       9.164       9.903       9.716       8.521       6.347       5.023       6.038       6.751    
        8.946       11.43       15.15       17.67       19.02       19.98       20.90       21.88       22.44       22.16    
        21.04       18.21       15.02       11.82       9.072       7.030       5.361       3.851       3.470       4.266    
        5.180       6.028       6.372       6.425       5.785       4.973       4.781       4.839       5.157       5.295    
        4.762       3.976       2.737       1.000     -1000.0     -1000.0     -1000.0     -1000.0     -1000.0     -1000.0    
  19  -1000.0     -1000.0     -1000.0     -1000.0     -1000.0     -1000.0     -1000.0     -1000.0     -1000.0     -1000.0    
      -1000.0     -1000.0     -1000.0     -1000.0     -1000.0     -1000.0     -1000.0     -1000.0     -1000.0     -1000.0    
      -1000.0     -1000.0     -1000.0     -1000.0     -1000.0     -1000.0     -1000.0     -1000.0     -1000.0     -1000.0    
      -1000.0     -1000.0     -1000.0     -1000.0     -1000.0     -1000.0     -1000.0     -1000.0     -1000.0     -1000.0    
      -1000.0     -1000.0     -1000.0     -1000.0     -1000.0       1.000       4.301       6.946       7.087       5.732    
        4.781       5.305       6.842       7.605       6.989       5.026       1.000       1.000       1.000       1.000    
        4.420       7.428       13.45       17.60       20.03       21.65       22.72       23.48       23.67       23.02    
        21.65       18.66       15.29       11.61       8.065       5.666       3.568       1.000       1.000       2.488    
        3.641       5.442       6.288       6.608       6.145       5.487       5.013       4.747       4.752       4.617    
        3.825       3.109       2.083       1.000     -1000.0     -1000.0     -1000.0     -1000.0     -1000.0     -1000.0    
  20  -1000.0     -1000.0     -1000.0     -1000.0     -1000.0     -1000.0     -1000.0     -1000.0     -1000.0     -1000.0    
      -1000.0     -1000.0     -1000.0     -1000.0     -1000.0     -1000.0     -1000.0     -1000.0     -1000.0     -1000.0    
      -1000.0     -1000.0     -1000.0     -1000.0     -1000.0     -1000.0     -1000.0     -1000.0     -1000.0     -1000.0    
      -1000.0     -1000.0     -1000.0     -1000.0     -1000.0     -1000.0     -1000.0     -1000.0     -1000.0     -1000.0    
      -1000.0     -1000.0     -1000.0     -1000.0       1.000       1.000       6.944       9.233       8.244       4.249    
        1.000       1.000       3.460       4.516       3.417       1.000     -1000.0     -1000.0     -1000.0     -1000.0    
        1.000       1.000       10.98       16.94       20.40       22.38       23.63       24.17       23.98       22.95    
        21.13       18.14       14.49       10.20       5.488       3.153       1.000       1.000       1.000       1.000    
        1.000       4.455       5.829       6.278       5.993       5.328       4.587       3.983       3.862       3.464    
        2.352       1.892       1.000       1.000     -1000.0     -1000.0     -1000.0     -1000.0     -1000.0     -1000.0    
  21  -1000.0     -1000.0     -1000.0     -1000.0     -1000.0     -1000.0     -1000.0     -1000.0     -1000.0     -1000.0    
      -1000.0     -1000.0     -1000.0     -1000.0     -1000.0     -1000.0     -1000.0     -1000.0     -1000.0     -1000.0    
      -1000.0     -1000.0     -1000.0     -1000.0     -1000.0     -1000.0     -1000.0     -1000.0     -1000.0     -1000.0    
      -1000.0     -1000.0     -1000.0     -1000.0     -1000.0     -1000.0     -1000.0     -1000.0     -1000.0     -1000.0    
      -1000.0     -1000.0     -1000.0       1.000       1.000       5.748       10.18       11.86       9.540       1.000    
        1.000       1.000       1.000       1.000       1.000       1.000     -1000.0     -1000.0     -1000.0     -1000.0    
      -1000.0       1.000       8.848       16.02       20.12       22.43       23.66       23.99       23.52       21.99    
        19.69       16.64       12.74       7.825       1.000       1.000     -1000.0     -1000.0     -1000.0       1.000    
        1.000       3.555       5.177       5.675       5.416       4.632       3.547       2.459       2.571       2.146    
        1.000       1.000       1.000     -1000.0     -1000.0     -1000.0     -1000.0     -1000.0     -1000.0     -1000.0    
  22  -1000.0     -1000.0     -1000.0     -1000.0     -1000.0     -1000.0     -1000.0     -1000.0     -1000.0     -1000.0    
      -1000.0     -1000.0     -1000.0     -1000.0     -1000.0     -1000.0     -1000.0     -1000.0     -1000.0     -1000.0    
      -1000.0     -1000.0     -1000.0     -1000.0     -1000.0     -1000.0     -1000.0     -1000.0     -1000.0     -1000.0    
      -1000.0     -1000.0     -1000.0     -1000.0     -1000.0     -1000.0     -1000.0     -1000.0     -1000.0     -1000.0    
      -1000.0     -1000.0       1.000       1.000       4.801       9.630       13.62       15.06       12.17       1.000    
        1.000       1.000       1.000     -1000.0     -1000.0     -1000.0     -1000.0     -1000.0     -1000.0     -1000.0    
      -1000.0       1.000       8.004       15.13       19.47       21.92       23.06       22.98       22.16       19.89    
        17.16       14.11       10.24       5.135       1.000     -1000.0     -1000.0     -1000.0     -1000.0     -1000.0    
        1.000       2.465       4.350       4.834       4.517       3.505       1.950       1.000       1.000       1.000    
      -1000.0     -1000.0     -1000.0     -1000.0     -1000.0     -1000.0     -1000.0     -1000.0     -1000.0     -1000.0    
  23  -1000.0     -1000.0     -1000.0     -1000.0     -1000.0     -1000.0     -1000.0     -1000.0     -1000.0     -1000.0    
      -1000.0     -1000.0     -1000.0     -1000.0     -1000.0     -1000.0     -1000.0     -1000.0     -1000.0     -1000.0    
      -1000.0     -1000.0     -1000.0     -1000.0     -1000.0     -1000.0     -1000.0     -1000.0     -1000.0     -1000.0    
      -1000.0     -1000.0     -1000.0     -1000.0     -1000.0     -1000.0     -1000.0     -1000.0     -1000.0     -1000.0    
      -1000.0     -1000.0       1.000       1.000       7.223       12.83       17.11       18.84       16.95       11.52    
        9.492       7.248       1.000       1.000       1.000       1.000       1.000     -1000.0     -1000.0     -1000.0    
      -1000.0       1.000       7.832       14.16       18.39       20.79       21.65       21.16       19.57       16.70    
        13.41       10.61       7.114       1.000       1.000     -1000.0     -1000.0     -1000.0     -1000.0     -1000.0    
      -1000.0       1.000       3.298       3.760       3.379       2.062       1.000     -1000.0       1.000     -1000.0    
      -1000.0     -1000.0     -1000.0     -1000.0     -1000.0     -1000.0     -1000.0     -1000.0     -1000.0     -1000.0    
  24  -1000.0     -1000.0     -1000.0     -1000.0     -1000.0     -1000.0     -1000.0     -1000.0     -1000.0     -1000.0    
      -1000.0     -1000.0     -1000.0     -1000.0     -1000.0     -1000.0     -1000.0     -1000.0     -1000.0     -1000.0    
      -1000.0     -1000.0     -1000.0     -1000.0     -1000.0     -1000.0     -1000.0     -1000.0     -1000.0     -1000.0    
      -1000.0     -1000.0     -1000.0     -1000.0     -1000.0     -1000.0     -1000.0     -1000.0     -1000.0     -1000.0    
      -1000.0     -1000.0     -1000.0       1.000       8.894       15.51       20.44       22.79       22.00       19.11    
        16.66       13.72       8.981       4.970       1.000       1.900       1.000     -1000.0     -1000.0     -1000.0    
      -1000.0       1.000       6.695       12.89       16.88       19.02       19.51       18.53       16.25       12.45    
        8.261       6.296       4.016       1.000     -1000.0     -1000.0     -1000.0     -1000.0     -1000.0     -1000.0    
        1.000       1.000       2.487       2.537       2.131       1.000       1.000     -1000.0     -1000.0     -1000.0    
      -1000.0     -1000.0     -1000.0     -1000.0     -1000.0     -1000.0     -1000.0     -1000.0     -1000.0     -1000.0    
  25  -1000.0     -1000.0     -1000.0     -1000.0     -1000.0     -1000.0     -1000.0     -1000.0     -1000.0     -1000.0    
      -1000.0     -1000.0     -1000.0     -1000.0     -1000.0     -1000.0     -1000.0     -1000.0     -1000.0     -1000.0    
      -1000.0     -1000.0     -1000.0     -1000.0     -1000.0     -1000.0     -1000.0     -1000.0     -1000.0     -1000.0    
      -1000.0     -1000.0     -1000.0     -1000.0     -1000.0     -1000.0     -1000.0     -1000.0     -1000.0     -1000.0    
      -1000.0     -1000.0       1.000       1.000       10.09       17.83       23.63       26.73       26.74       25.01    
        22.62       19.48       15.26       11.00       6.532       3.493       1.000     -1000.0     -1000.0     -1000.0    
      -1000.0       1.000       5.769       11.36       14.95       16.63       16.68       15.21       12.32       7.126    
        1.000       1.000       1.000       1.000     -1000.0     -1000.0     -1000.0     -1000.0     -1000.0       1.000    
        1.000       1.330       1.750       1.000       1.000       1.000     -1000.0     -1000.0     -1000.0     -1000.0    
      -1000.0     -1000.0     -1000.0     -1000.0     -1000.0     -1000.0     -1000.0     -1000.0     -1000.0     -1000.0    
  26  -1000.0     -1000.0     -1000.0     -1000.0     -1000.0     -1000.0     -1000.0     -1000.0     -1000.0     -1000.0    
      -1000.0     -1000.0     -1000.0     -1000.0     -1000.0     -1000.0     -1000.0     -1000.0     -1000.0     -1000.0    
      -1000.0     -1000.0     -1000.0     -1000.0     -1000.0     -1000.0     -1000.0     -1000.0     -1000.0     -1000.0    
      -1000.0     -1000.0     -1000.0     -1000.0     -1000.0     -1000.0     -1000.0     -1000.0     -1000.0     -1000.0    
        1.000     -1000.0       1.000       1.000       10.88       19.90       26.56       30.73       30.95       29.67    
        27.42       24.25       20.11       15.43       10.28       5.049       1.000     -1000.0     -1000.0     -1000.0    
      -1000.0       1.000       4.746       9.542       12.65       13.68       13.26       11.29       8.194       1.000    
      -1000.0       1.000       1.000     -1000.0     -1000.0     -1000.0     -1000.0     -1000.0     -1000.0     -1000.0    
        1.000       1.000       1.000       1.000     -1000.0     -1000.0     -1000.0     -1000.0     -1000.0     -1000.0    
      -1000.0     -1000.0     -1000.0     -1000.0     -1000.0     -1000.0     -1000.0     -1000.0     -1000.0     -1000.0    
  27  -1000.0     -1000.0     -1000.0     -1000.0     -1000.0     -1000.0     -1000.0     -1000.0     -1000.0     -1000.0    
      -1000.0     -1000.0     -1000.0     -1000.0     -1000.0     -1000.0     -1000.0     -1000.0     -1000.0     -1000.0    
      -1000.0     -1000.0     -1000.0     -1000.0     -1000.0     -1000.0     -1000.0     -1000.0     -1000.0     -1000.0    
      -1000.0     -1000.0     -1000.0     -1000.0     -1000.0     -1000.0     -1000.0     -1000.0     -1000.0       1.000    
        1.000       1.000     -1000.0       1.000       10.97       21.79       29.10       33.78       34.24       33.30    
        31.13       27.94       23.70       18.63       12.88       6.959       1.000       1.000       1.000     -1000.0    
      -1000.0       1.000       3.349       7.369       9.627       10.34       9.334       6.758       4.717       1.000    
      -1000.0     -1000.0     -1000.0     -1000.0     -1000.0     -1000.0     -1000.0     -1000.0     -1000.0     -1000.0    
      -1000.0       1.000       1.000     -1000.0     -1000.0     -1000.0     -1000.0     -1000.0     -1000.0     -1000.0    
      -1000.0     -1000.0     -1000.0     -1000.0     -1000.0     -1000.0     -1000.0     -1000.0     -1000.0     -1000.0    
  28  -1000.0     -1000.0     -1000.0     -1000.0     -1000.0     -1000.0     -1000.0     -1000.0     -1000.0     -1000.0    
      -1000.0     -1000.0     -1000.0     -1000.0     -1000.0     -1000.0     -1000.0     -1000.0     -1000.0     -1000.0    
      -1000.0     -1000.0     -1000.0     -1000.0     -1000.0     -1000.0     -1000.0     -1000.0     -1000.0     -1000.0    
      -1000.0     -1000.0     -1000.0     -1000.0     -1000.0     -1000.0     -1000.0     -1000.0       1.000       1.000    
        3.829       3.518       1.000       1.000       12.51       23.88       31.26       35.94       36.68       35.93    
        33.82       30.58       26.16       20.71       14.37       7.820       2.151       1.360       1.000     -1000.0    
      -1000.0       1.000       1.000       4.955       6.385       6.221       5.061       1.000       1.000       1.000    
      -1000.0     -1000.0     -1000.0     -1000.0     -1000.0     -1000.0     -1000.0     -1000.0     -1000.0     -1000.0    
      -1000.0     -1000.0     -1000.0     -1000.0     -1000.0     -1000.0     -1000.0     -1000.0     -1000.0     -1000.0    
      -1000.0     -1000.0     -1000.0     -1000.0     -1000.0     -1000.0     -1000.0     -1000.0     -1000.0     -1000.0    
  29  -1000.0     -1000.0     -1000.0     -1000.0     -1000.0     -1000.0     -1000.0     -1000.0     -1000.0     -1000.0    
      -1000.0     -1000.0     -1000.0     -1000.0     -1000.0     -1000.0     -1000.0     -1000.0     -1000.0     -1000.0    
      -1000.0     -1000.0     -1000.0       1.000       1.000     -1000.0     -1000.0     -1000.0     -1000.0       1.000    
        1.000       1.000     -1000.0     -1000.0     -1000.0     -1000.0     -1000.0       1.000       1.000       4.661    
        7.100       6.779       1.000       1.000       16.35       26.37       33.06       37.09       38.29       37.59    
        35.54       32.21       27.57       21.75       14.78       7.248       1.000       1.000     -1000.0     -1000.0    
      -1000.0     -1000.0       1.000       2.619       2.947       1.000       1.000       1.000     -1000.0     -1000.0    
      -1000.0     -1000.0     -1000.0     -1000.0     -1000.0     -1000.0     -1000.0     -1000.0     -1000.0     -1000.0    
      -1000.0     -1000.0     -1000.0     -1000.0     -1000.0     -1000.0     -1000.0     -1000.0     -1000.0     -1000.0    
      -1000.0     -1000.0     -1000.0     -1000.0     -1000.0     -1000.0     -1000.0     -1000.0     -1000.0     -1000.0    
  30  -1000.0     -1000.0     -1000.0     -1000.0     -1000.0     -1000.0     -1000.0     -1000.0     -1000.0     -1000.0    
      -1000.0     -1000.0     -1000.0     -1000.0     -1000.0     -1000.0     -1000.0     -1000.0       1.000       1.000    
        1.000       1.000       1.000       1.000       1.000     -1000.0     -1000.0     -1000.0       1.000       1.000    
        1.000       1.000     -1000.0     -1000.0     -1000.0     -1000.0     -1000.0       1.000       1.000       7.710    
        10.57       11.29       10.01       12.15       21.15       28.90       34.45       37.94       39.09       38.39    
        36.31       32.82       27.97       21.85       14.34       5.073       1.000     -1000.0     -1000.0     -1000.0    
      -1000.0       1.000       1.000       1.000       1.000       1.000     -1000.0     -1000.0     -1000.0     -1000.0    
      -1000.0     -1000.0     -1000.0     -1000.0     -1000.0     -1000.0     -1000.0     -1000.0     -1000.0     -1000.0    
      -1000.0     -1000.0     -1000.0     -1000.0     -1000.0     -1000.0     -1000.0     -1000.0     -1000.0     -1000.0    
      -1000.0     -1000.0     -1000.0     -1000.0     -1000.0     -1000.0     -1000.0     -1000.0     -1000.0     -1000.0    
  31  -1000.0     -1000.0     -1000.0     -1000.0     -1000.0     -1000.0     -1000.0     -1000.0     -1000.0     -1000.0    
      -1000.0     -1000.0     -1000.0     -1000.0     -1000.0     -1000.0       1.000       1.000       1.000       1.000    
        1.000       1.000       1.000       1.236       1.000       1.000       1.000       1.000       1.000       1.380    
        1.000       1.000       1.000       1.000       1.000       1.000       1.000       1.000       6.353       11.19    
        13.88       15.47       16.56       19.25       25.15       30.93       35.37       38.20       39.09       38.28    
        36.10       32.46       27.42       21.07       13.02       1.000       1.000     -1000.0     -1000.0     -1000.0    
      -1000.0     -1000.0       1.000     -1000.0     -1000.0     -1000.0     -1000.0     -1000.0     -1000.0     -1000.0    
      -1000.0     -1000.0     -1000.0     -1000.0     -1000.0     -1000.0     -1000.0     -1000.0     -1000.0     -1000.0    
      -1000.0     -1000.0     -1000.0     -1000.0     -1000.0     -1000.0     -1000.0     -1000.0     -1000.0     -1000.0    
      -1000.0     -1000.0     -1000.0     -1000.0     -1000.0     -1000.0     -1000.0     -1000.0     -1000.0     -1000.0    
  32  -1000.0     -1000.0     -1000.0     -1000.0     -1000.0     -1000.0     -1000.0     -1000.0     -1000.0     -1000.0    
      -1000.0     -1000.0     -1000.0     -1000.0     -1000.0       1.000       1.000       1.000       1.000       1.514    
        1.772       1.676       1.632       1.548       1.000       1.000       1.000       1.605       1.807       2.006    
        1.909       1.998       1.646       1.000       1.000       4.409       5.876       7.188       10.60       14.23    
        16.45       18.62       21.05       23.62       27.83       32.20       35.63       37.74       38.29       37.32    
        35.03       31.23       26.01       19.61       12.21       4.250       1.949       1.000     -1000.0     -1000.0    
      -1000.0     -1000.0     -1000.0     -1000.0     -1000.0     -1000.0     -1000.0     -1000.0     -1000.0     -1000.0    
      -1000.0     -1000.0     -1000.0     -1000.0     -1000.0     -1000.0     -1000.0     -1000.0     -1000.0     -1000.0    
      -1000.0     -1000.0     -1000.0     -1000.0     -1000.0     -1000.0     -1000.0     -1000.0     -1000.0     -1000.0    
      -1000.0     -1000.0     -1000.0     -1000.0     -1000.0     -1000.0     -1000.0     -1000.0     -1000.0     -1000.0    
  33  -1000.0     -1000.0     -1000.0     -1000.0     -1000.0     -1000.0     -1000.0     -1000.0     -1000.0     -1000.0    
      -1000.0     -1000.0     -1000.0     -1000.0     -1000.0       1.000       1.316       1.487       1.662       2.028    
        2.241       2.263       2.211       1.975       1.000       1.000       1.807       2.296       2.532       2.675    
        2.660       2.600       2.200       1.000       3.697       7.355       9.495       11.12       13.35       15.87    
        17.76       20.33       23.37       25.91       29.12       32.37       34.88       36.40       36.64       35.53    
        33.12       29.13       23.71       17.26       10.55       4.107       2.306       1.000     -1000.0     -1000.0    
      -1000.0     -1000.0     -1000.0     -1000.0     -1000.0     -1000.0     -1000.0     -1000.0     -1000.0     -1000.0    
      -1000.0     -1000.0     -1000.0     -1000.0     -1000.0     -1000.0     -1000.0     -1000.0     -1000.0     -1000.0    
      -1000.0     -1000.0     -1000.0     -1000.0     -1000.0     -1000.0     -1000.0     -1000.0     -1000.0     -1000.0    
      -1000.0     -1000.0     -1000.0     -1000.0     -1000.0     -1000.0     -1000.0     -1000.0     -1000.0     -1000.0    
  34  -1000.0     -1000.0     -1000.0     -1000.0     -1000.0     -1000.0     -1000.0     -1000.0     -1000.0     -1000.0    
      -1000.0     -1000.0     -1000.0     -1000.0       1.000       1.000       1.602       1.923       2.190       2.500    
        2.723       2.813       2.800       2.633       2.209       2.225       2.663       3.008       3.212       3.327    
        3.348       3.266       3.011       2.590       5.726       9.657       12.01       13.42       14.56       15.76    
        17.50       20.55       23.79       26.52       29.07       31.36       33.01       34.03       34.08       32.91    
        30.38       26.19       20.45       13.71       7.678       1.000       1.536       1.000     -1000.0     -1000.0    
      -1000.0     -1000.0     -1000.0     -1000.0     -1000.0     -1000.0     -1000.0     -1000.0     -1000.0     -1000.0    
      -1000.0     -1000.0     -1000.0     -1000.0     -1000.0     -1000.0     -1000.0     -1000.0     -1000.0     -1000.0    
      -1000.0     -1000.0     -1000.0     -1000.0     -1000.0     -1000.0     -1000.0     -1000.0     -1000.0     -1000.0    
      -1000.0     -1000.0     -1000.0     -1000.0     -1000.0     -1000.0     -1000.0     -1000.0     -1000.0     -1000.0    
  35  -1000.0     -1000.0     -1000.0     -1000.0     -1000.0     -1000.0     -1000.0     -1000.0     -1000.0     -1000.0    
      -1000.0       1.000       1.000       1.000       1.000       1.457       1.956       2.329       2.644       2.948    
        3.190       3.332       3.379       3.307       3.139       3.178       3.433       3.689       3.841       3.932    
        3.956       3.915       3.806       3.749       7.229       11.28       13.55       14.43       14.38       14.00    
        15.43       19.37       23.11       25.89       27.82       29.08       29.81       30.50       30.49       29.43    
        26.86       22.49       16.26       8.620       4.109       1.000       1.000       1.000     -1000.0     -1000.0    
      -1000.0     -1000.0     -1000.0     -1000.0     -1000.0     -1000.0     -1000.0     -1000.0     -1000.0     -1000.0    
      -1000.0     -1000.0     -1000.0     -1000.0     -1000.0     -1000.0     -1000.0     -1000.0     -1000.0     -1000.0    
      -1000.0     -1000.0     -1000.0     -1000.0     -1000.0     -1000.0     -1000.0     -1000.0     -1000.0     -1000.0    
      -1000.0     -1000.0     -1000.0     -1000.0     -1000.0     -1000.0     -1000.0     -1000.0     -1000.0     -1000.0    
  36  -1000.0     -1000.0     -1000.0     -1000.0     -1000.0     -1000.0     -1000.0     -1000.0     -1000.0     -1000.0    
        1.000       1.000       1.000       1.000       1.425       1.855       2.308       2.699       3.041       3.358    
        3.620       3.812       3.911       3.920       3.884       3.942       4.104       4.281       4.401       4.472    
        4.501       4.500       4.489       4.609       8.376       12.27       14.25       14.43       12.98       10.06    
        10.80       16.75       21.32       24.09       25.40       25.49       25.08       25.69       25.86       25.10    
        22.70       18.23       11.40       1.000       1.000       1.000     -1000.0     -1000.0     -1000.0     -1000.0    
      -1000.0     -1000.0     -1000.0     -1000.0     -1000.0     -1000.0     -1000.0     -1000.0     -1000.0     -1000.0    
      -1000.0     -1000.0     -1000.0     -1000.0     -1000.0     -1000.0     -1000.0     -1000.0     -1000.0     -1000.0    
      -1000.0     -1000.0     -1000.0     -1000.0     -1000.0     -1000.0     -1000.0     -1000.0     -1000.0     -1000.0    
      -1000.0     -1000.0     -1000.0     -1000.0     -1000.0     -1000.0     -1000.0     -1000.0     -1000.0     -1000.0    
  37  -1000.0     -1000.0     -1000.0     -1000.0     -1000.0     -1000.0     -1000.0     -1000.0     -1000.0     -1000.0    
        1.000       1.000       1.000       1.000       1.707       2.189       2.627       3.026       3.381       3.711    
        3.998       4.230       4.377       4.448       4.484       4.556       4.671       4.795       4.884       4.934    
        4.961       4.991       5.022       5.224       8.797       12.64       14.23       13.69       10.77       6.550    
        6.593       13.17       18.80       21.42       21.97       20.66       18.43       19.61       20.22       20.08    
        18.07       13.70       6.875       1.000     -1000.0     -1000.0     -1000.0     -1000.0     -1000.0     -1000.0    
      -1000.0     -1000.0     -1000.0     -1000.0     -1000.0     -1000.0     -1000.0     -1000.0     -1000.0     -1000.0    
      -1000.0     -1000.0     -1000.0     -1000.0     -1000.0     -1000.0     -1000.0     -1000.0     -1000.0     -1000.0    
      -1000.0     -1000.0     -1000.0     -1000.0     -1000.0     -1000.0     -1000.0     -1000.0     -1000.0     -1000.0    
      -1000.0     -1000.0     -1000.0     -1000.0     -1000.0     -1000.0     -1000.0     -1000.0     -1000.0     -1000.0    
  38  -1000.0     -1000.0     -1000.0     -1000.0     -1000.0     -1000.0     -1000.0     -1000.0     -1000.0     -1000.0    
        1.000       1.196       1.348       1.541       2.031       2.484       2.901       3.305       3.664       4.010    
        4.310       4.574       4.762       4.882       4.963       5.046       5.134       5.220       5.279       5.306    
        5.317       5.341       5.382       5.591       8.930       12.49       13.69       12.60       9.384       6.451    
        6.508       11.26       16.13       18.20       17.85       14.80       8.942       12.35       13.61       14.58    
        13.20       9.047       1.000       1.000     -1000.0     -1000.0     -1000.0     -1000.0     -1000.0     -1000.0    
      -1000.0     -1000.0     -1000.0     -1000.0     -1000.0     -1000.0     -1000.0     -1000.0     -1000.0     -1000.0    
      -1000.0     -1000.0     -1000.0     -1000.0     -1000.0     -1000.0     -1000.0     -1000.0     -1000.0     -1000.0    
      -1000.0     -1000.0     -1000.0     -1000.0     -1000.0     -1000.0     -1000.0     -1000.0     -1000.0     -1000.0    
      -1000.0     -1000.0     -1000.0     -1000.0     -1000.0     -1000.0     -1000.0     -1000.0     -1000.0     -1000.0    
  39  -1000.0     -1000.0     -1000.0     -1000.0     -1000.0     -1000.0     -1000.0     -1000.0     -1000.0       1.000    
        1.000       1.373       1.631       1.933       2.315       2.738       3.122       3.535       3.885       4.255    
        4.549       4.842       5.065       5.223       5.336       5.428       5.498       5.554       5.585       5.584    
        5.561       5.545       5.569       5.726       8.712       11.87       12.68       11.07       7.618       6.303    
        6.412       9.811       13.22       14.58       13.41       8.722       1.488       4.605       5.848       8.788    
        8.241       4.885       1.000     -1000.0     -1000.0     -1000.0     -1000.0     -1000.0     -1000.0     -1000.0    
      -1000.0     -1000.0     -1000.0     -1000.0     -1000.0     -1000.0     -1000.0     -1000.0     -1000.0     -1000.0    
      -1000.0     -1000.0     -1000.0     -1000.0     -1000.0     -1000.0     -1000.0     -1000.0     -1000.0     -1000.0    
      -1000.0     -1000.0     -1000.0     -1000.0     -1000.0     -1000.0     -1000.0     -1000.0     -1000.0     -1000.0    
      -1000.0     -1000.0     -1000.0     -1000.0     -1000.0     -1000.0     -1000.0     -1000.0     -1000.0     -1000.0    
  40  -1000.0     -1000.0     -1000.0     -1000.0     -1000.0     -1000.0     -1000.0     -1000.0       1.000       1.000    
        1.245       1.556       1.848       2.152       2.523       2.887       3.265       3.657       4.025       4.387    
        4.712       5.029       5.282       5.471       5.610       5.709       5.768       5.798       5.803       5.766    
        5.694       5.628       5.596       5.665       8.005       10.79       11.27       8.941       5.809       6.091    
        6.333       8.402       9.838       10.69       9.074       5.395       1.323       1.207       1.000       3.315    
        3.381       1.000     -1000.0     -1000.0     -1000.0     -1000.0     -1000.0     -1000.0     -1000.0     -1000.0    
      -1000.0     -1000.0     -1000.0     -1000.0     -1000.0     -1000.0     -1000.0     -1000.0     -1000.0     -1000.0    
      -1000.0     -1000.0     -1000.0     -1000.0     -1000.0     -1000.0     -1000.0     -1000.0     -1000.0     -1000.0    
      -1000.0     -1000.0     -1000.0     -1000.0     -1000.0     -1000.0     -1000.0     -1000.0     -1000.0     -1000.0    
      -1000.0     -1000.0     -1000.0     -1000.0     -1000.0     -1000.0     -1000.0     -1000.0     -1000.0     -1000.0    
  41  -1000.0     -1000.0     -1000.0     -1000.0     -1000.0     -1000.0     -1000.0       1.000       1.000       1.191    
        1.422       1.706       2.009       2.287       2.618       2.967       3.334       3.715       4.089       4.457    
        4.801       5.131       5.414       5.630       5.789       5.896       5.947       5.957       5.928       5.854    
        5.717       5.592       5.477       5.408       6.445       9.335       9.692       7.054       5.640       5.876    
        6.517       6.862       5.420       6.583       4.354       2.708       1.174       1.191       1.000       1.000    
        1.029       1.000     -1000.0     -1000.0     -1000.0     -1000.0     -1000.0     -1000.0     -1000.0     -1000.0    
      -1000.0     -1000.0     -1000.0     -1000.0     -1000.0     -1000.0     -1000.0     -1000.0     -1000.0     -1000.0    
      -1000.0     -1000.0     -1000.0     -1000.0     -1000.0     -1000.0     -1000.0     -1000.0     -1000.0     -1000.0    
      -1000.0     -1000.0     -1000.0     -1000.0     -1000.0     -1000.0     -1000.0     -1000.0     -1000.0     -1000.0    
      -1000.0     -1000.0     -1000.0     -1000.0     -1000.0     -1000.0     -1000.0     -1000.0     -1000.0     -1000.0    
  42  -1000.0     -1000.0     -1000.0     -1000.0     -1000.0     -1000.0     -1000.0       1.000       1.156       1.330    
        1.547       1.802       2.074       2.344       2.645       2.977       3.330       3.702       4.081       4.461    
        4.820       5.158       5.463       5.701       5.879       5.996       6.043       6.029       5.969       5.865    
        5.634       5.459       5.233       4.962       4.742       7.616       8.045       5.456       5.343       5.735    
        6.084       4.922       1.939       2.768       1.280       1.000       1.000       1.000       1.000       1.000    
        1.000     -1000.0     -1000.0     -1000.0     -1000.0     -1000.0     -1000.0     -1000.0     -1000.0     -1000.0    
      -1000.0     -1000.0     -1000.0     -1000.0     -1000.0     -1000.0     -1000.0     -1000.0     -1000.0     -1000.0    
      -1000.0     -1000.0     -1000.0     -1000.0     -1000.0     -1000.0     -1000.0     -1000.0     -1000.0     -1000.0    
      -1000.0     -1000.0     -1000.0     -1000.0     -1000.0     -1000.0     -1000.0     -1000.0     -1000.0     -1000.0    
      -1000.0     -1000.0     -1000.0     -1000.0     -1000.0     -1000.0     -1000.0     -1000.0     -1000.0     -1000.0    
  43  -1000.0     -1000.0     -1000.0     -1000.0     -1000.0     -1000.0     -1000.0       1.000       1.232       1.409    
        1.615       1.845       2.088       2.333       2.603       2.911       3.246       3.615       3.998       4.387    
        4.756       5.108       5.428       5.686       5.881       6.010       6.057       6.024       5.910       5.747    
        5.492       5.249       4.916       4.693       4.678       6.813       7.450       5.674       4.815       5.968    
        5.356       3.925       1.864       1.635       1.338       1.000       1.000       1.000     -1000.0       1.000    
        1.000     -1000.0     -1000.0     -1000.0     -1000.0     -1000.0     -1000.0     -1000.0     -1000.0     -1000.0    
      -1000.0     -1000.0     -1000.0     -1000.0     -1000.0     -1000.0     -1000.0     -1000.0     -1000.0     -1000.0    
      -1000.0     -1000.0     -1000.0     -1000.0     -1000.0     -1000.0     -1000.0     -1000.0     -1000.0     -1000.0    
      -1000.0     -1000.0     -1000.0     -1000.0     -1000.0     -1000.0     -1000.0     -1000.0     -1000.0     -1000.0    
      -1000.0     -1000.0     -1000.0     -1000.0     -1000.0     -1000.0     -1000.0     -1000.0     -1000.0     -1000.0    
  44  -1000.0     -1000.0     -1000.0     -1000.0     -1000.0     -1000.0     -1000.0       1.000       1.243       1.434    
        1.632       1.836       2.048       2.257       2.487       2.766       3.078       3.449       3.840       4.233    
        4.611       4.978       5.307       5.583       5.799       5.943       5.999       5.957       5.804       5.600    
        5.374       5.033       4.706       4.624       4.587       6.220       6.577       4.769       4.257       4.724    
        3.898       2.989       1.864       1.646       1.403       1.000       1.000     -1000.0     -1000.0       1.000    
        1.000     -1000.0     -1000.0     -1000.0     -1000.0     -1000.0     -1000.0     -1000.0     -1000.0     -1000.0    
      -1000.0     -1000.0     -1000.0     -1000.0     -1000.0     -1000.0     -1000.0     -1000.0     -1000.0     -1000.0    
      -1000.0     -1000.0     -1000.0     -1000.0     -1000.0     -1000.0     -1000.0     -1000.0     -1000.0     -1000.0    
      -1000.0     -1000.0     -1000.0     -1000.0     -1000.0     -1000.0     -1000.0     -1000.0     -1000.0     -1000.0    
      -1000.0     -1000.0     -1000.0     -1000.0     -1000.0     -1000.0     -1000.0     -1000.0     -1000.0     -1000.0    
  45  -1000.0     -1000.0     -1000.0     -1000.0       1.000       1.000       1.000       1.082       1.244       1.414    
        1.599       1.781       1.954       2.114       2.290       2.540       2.815       3.193       3.598       3.998    
        4.380       4.758       5.099       5.395       5.632       5.798       5.877       5.860       5.725       5.490    
        5.252       4.921       4.635       4.527       4.461       5.548       5.345       3.526       3.675       3.101    
        2.674       2.302       1.936       1.659       1.368       1.000     -1000.0     -1000.0       1.000       1.000    
        1.000     -1000.0     -1000.0     -1000.0     -1000.0     -1000.0     -1000.0     -1000.0     -1000.0     -1000.0    
      -1000.0     -1000.0     -1000.0     -1000.0     -1000.0     -1000.0     -1000.0     -1000.0     -1000.0     -1000.0    
      -1000.0     -1000.0     -1000.0     -1000.0     -1000.0     -1000.0     -1000.0     -1000.0     -1000.0     -1000.0    
      -1000.0     -1000.0     -1000.0     -1000.0     -1000.0     -1000.0     -1000.0     -1000.0     -1000.0     -1000.0    
      -1000.0     -1000.0     -1000.0     -1000.0     -1000.0     -1000.0     -1000.0     -1000.0     -1000.0     -1000.0    
  46  -1000.0     -1000.0     -1000.0     -1000.0       1.000       1.000       1.026       1.106       1.220       1.348    
        1.525       1.682       1.813       1.910       2.001       2.238       2.441       2.849       3.279       3.685    
        4.067       4.451       4.805       5.122       5.384       5.579       5.690       5.702       5.589       5.386    
        5.119       4.811       4.550       4.402       4.293       4.616       4.434       3.427       3.370       3.000    
        2.626       2.283       1.953       1.663       1.363       1.000       1.000     -1000.0       1.000       1.000    
      -1000.0     -1000.0     -1000.0     -1000.0     -1000.0     -1000.0     -1000.0     -1000.0     -1000.0     -1000.0    
      -1000.0     -1000.0     -1000.0     -1000.0     -1000.0     -1000.0     -1000.0     -1000.0     -1000.0     -1000.0    
      -1000.0     -1000.0     -1000.0     -1000.0     -1000.0     -1000.0     -1000.0     -1000.0     -1000.0     -1000.0    
      -1000.0     -1000.0     -1000.0     -1000.0     -1000.0     -1000.0     -1000.0     -1000.0     -1000.0     -1000.0    
      -1000.0     -1000.0     -1000.0     -1000.0     -1000.0     -1000.0     -1000.0     -1000.0     -1000.0     -1000.0    
  47  -1000.0     -1000.0     -1000.0     -1000.0     -1000.0       1.000       1.000       1.000       1.150       1.221    
        1.414       1.552       1.636       1.654       1.594       1.840       1.878       2.424       2.897       3.304    
        3.673       4.062       4.432       4.772       5.062       5.293       5.440       5.490       5.423       5.244    
        4.955       4.700       4.469       4.258       4.069       3.715       3.481       3.333       3.180       2.885    
        2.557       2.243       1.939       1.658       1.382       1.137       1.000     -1000.0     -1000.0     -1000.0    
        1.000     -1000.0     -1000.0     -1000.0     -1000.0     -1000.0     -1000.0     -1000.0     -1000.0     -1000.0    
      -1000.0     -1000.0     -1000.0     -1000.0     -1000.0     -1000.0     -1000.0     -1000.0     -1000.0     -1000.0    
      -1000.0     -1000.0     -1000.0     -1000.0     -1000.0     -1000.0     -1000.0     -1000.0     -1000.0     -1000.0    
      -1000.0     -1000.0     -1000.0     -1000.0     -1000.0     -1000.0     -1000.0     -1000.0     -1000.0     -1000.0    
[...]
      -1000.0     -1000.0     -1000.0     -1000.0     -1000.0     -1000.0     -1000.0     -1000.0     -1000.0     -1000.0    
      -1000.0     -1000.0     -1000.0     -1000.0     -1000.0     -1000.0     -1000.0     -1000.0     -1000.0     -1000.0    
      -1000.0     -1000.0     -1000.0     -1000.0     -1000.0     -1000.0     -1000.0     -1000.0     -1000.0     -1000.0    
      -1000.0     -1000.0     -1000.0     -1000.0     -1000.0     -1000.0     -1000.0     -1000.0     -1000.0     -1000.0    
      -1000.0     -1000.0     -1000.0     -1000.0     -1000.0     -1000.0     -1000.0     -1000.0     -1000.0     -1000.0    
      -1000.0     -1000.0     -1000.0     -1000.0     -1000.0     -1000.0     -1000.0     -1000.0     -1000.0     -1000.0    
  66  -1000.0     -1000.0     -1000.0     -1000.0     -1000.0     -1000.0     -1000.0     -1000.0     -1000.0     -1000.0    
      -1000.0     -1000.0     -1000.0     -1000.0     -1000.0     -1000.0     -1000.0     -1000.0     -1000.0     -1000.0    
      -1000.0     -1000.0     -1000.0     -1000.0     -1000.0       1.000       1.000       1.000       1.000       1.000    
        1.000       1.000       1.128       1.000     -1000.0       1.000       1.000       1.000       1.000     -1000.0    
      -1000.0     -1000.0     -1000.0     -1000.0     -1000.0     -1000.0     -1000.0     -1000.0     -1000.0     -1000.0    
      -1000.0     -1000.0     -1000.0     -1000.0     -1000.0     -1000.0     -1000.0     -1000.0     -1000.0     -1000.0    
      -1000.0     -1000.0     -1000.0     -1000.0     -1000.0     -1000.0     -1000.0     -1000.0     -1000.0     -1000.0    
      -1000.0     -1000.0     -1000.0     -1000.0     -1000.0     -1000.0     -1000.0     -1000.0     -1000.0     -1000.0    
      -1000.0     -1000.0     -1000.0     -1000.0     -1000.0     -1000.0     -1000.0     -1000.0     -1000.0     -1000.0    
      -1000.0     -1000.0     -1000.0     -1000.0     -1000.0     -1000.0     -1000.0     -1000.0     -1000.0     -1000.0    
  67  -1000.0     -1000.0     -1000.0     -1000.0     -1000.0     -1000.0     -1000.0     -1000.0     -1000.0     -1000.0    
      -1000.0     -1000.0     -1000.0     -1000.0     -1000.0     -1000.0     -1000.0     -1000.0     -1000.0     -1000.0    
      -1000.0     -1000.0     -1000.0     -1000.0     -1000.0     -1000.0     -1000.0       1.000       1.000     -1000.0    
      -1000.0       1.000       1.082       1.000     -1000.0       1.000       1.000       1.000       1.000     -1000.0    
      -1000.0     -1000.0     -1000.0     -1000.0     -1000.0     -1000.0     -1000.0     -1000.0     -1000.0     -1000.0    
      -1000.0     -1000.0     -1000.0     -1000.0     -1000.0     -1000.0     -1000.0     -1000.0     -1000.0     -1000.0    
      -1000.0     -1000.0     -1000.0     -1000.0     -1000.0     -1000.0     -1000.0     -1000.0     -1000.0     -1000.0    
      -1000.0     -1000.0     -1000.0     -1000.0     -1000.0     -1000.0     -1000.0     -1000.0     -1000.0     -1000.0    
      -1000.0     -1000.0     -1000.0     -1000.0     -1000.0     -1000.0     -1000.0     -1000.0     -1000.0     -1000.0    
      -1000.0     -1000.0     -1000.0     -1000.0     -1000.0     -1000.0     -1000.0     -1000.0     -1000.0     -1000.0    
  68  -1000.0     -1000.0     -1000.0     -1000.0     -1000.0     -1000.0     -1000.0     -1000.0     -1000.0     -1000.0    
      -1000.0     -1000.0     -1000.0     -1000.0     -1000.0     -1000.0     -1000.0     -1000.0     -1000.0     -1000.0    
      -1000.0     -1000.0     -1000.0     -1000.0     -1000.0     -1000.0     -1000.0     -1000.0       1.000     -1000.0    
      -1000.0       1.000       1.053       1.000     -1000.0     -1000.0       1.000       1.000     -1000.0     -1000.0    
      -1000.0     -1000.0     -1000.0     -1000.0     -1000.0     -1000.0     -1000.0     -1000.0     -1000.0     -1000.0    
      -1000.0     -1000.0     -1000.0     -1000.0     -1000.0     -1000.0     -1000.0     -1000.0     -1000.0     -1000.0    
      -1000.0     -1000.0     -1000.0     -1000.0     -1000.0     -1000.0     -1000.0     -1000.0     -1000.0     -1000.0    
      -1000.0     -1000.0     -1000.0     -1000.0     -1000.0     -1000.0     -1000.0     -1000.0     -1000.0     -1000.0    
      -1000.0     -1000.0     -1000.0     -1000.0     -1000.0     -1000.0     -1000.0     -1000.0     -1000.0     -1000.0    
      -1000.0     -1000.0     -1000.0     -1000.0     -1000.0     -1000.0     -1000.0     -1000.0     -1000.0     -1000.0    
  69  -1000.0     -1000.0     -1000.0     -1000.0     -1000.0     -1000.0     -1000.0     -1000.0     -1000.0     -1000.0    
      -1000.0     -1000.0     -1000.0     -1000.0     -1000.0     -1000.0     -1000.0     -1000.0     -1000.0     -1000.0    
      -1000.0     -1000.0     -1000.0     -1000.0     -1000.0     -1000.0     -1000.0     -1000.0     -1000.0     -1000.0    
        1.000       1.000       1.030       1.000     -1000.0     -1000.0     -1000.0     -1000.0     -1000.0     -1000.0    
      -1000.0     -1000.0     -1000.0     -1000.0     -1000.0     -1000.0     -1000.0     -1000.0     -1000.0     -1000.0    
      -1000.0     -1000.0     -1000.0     -1000.0     -1000.0     -1000.0     -1000.0     -1000.0     -1000.0     -1000.0    
      -1000.0     -1000.0     -1000.0     -1000.0     -1000.0     -1000.0     -1000.0     -1000.0     -1000.0     -1000.0    
      -1000.0     -1000.0     -1000.0     -1000.0     -1000.0     -1000.0     -1000.0     -1000.0     -1000.0     -1000.0    
      -1000.0     -1000.0     -1000.0     -1000.0     -1000.0     -1000.0     -1000.0     -1000.0     -1000.0     -1000.0    
      -1000.0     -1000.0     -1000.0     -1000.0     -1000.0     -1000.0     -1000.0     -1000.0     -1000.0     -1000.0    
  70  -1000.0     -1000.0     -1000.0     -1000.0     -1000.0     -1000.0     -1000.0     -1000.0     -1000.0     -1000.0    
      -1000.0     -1000.0     -1000.0     -1000.0     -1000.0     -1000.0     -1000.0     -1000.0     -1000.0     -1000.0    
      -1000.0     -1000.0     -1000.0     -1000.0     -1000.0     -1000.0     -1000.0     -1000.0     -1000.0     -1000.0    
        1.000       1.009       1.000     -1000.0     -1000.0     -1000.0     -1000.0     -1000.0     -1000.0     -1000.0    
      -1000.0     -1000.0     -1000.0     -1000.0     -1000.0     -1000.0     -1000.0     -1000.0     -1000.0     -1000.0    
      -1000.0     -1000.0     -1000.0     -1000.0     -1000.0     -1000.0     -1000.0     -1000.0     -1000.0     -1000.0    
      -1000.0     -1000.0     -1000.0     -1000.0     -1000.0     -1000.0     -1000.0     -1000.0     -1000.0     -1000.0    
      -1000.0     -1000.0     -1000.0     -1000.0     -1000.0     -1000.0     -1000.0     -1000.0     -1000.0     -1000.0    
      -1000.0     -1000.0     -1000.0     -1000.0     -1000.0     -1000.0     -1000.0     -1000.0     -1000.0     -1000.0    
      -1000.0     -1000.0     -1000.0     -1000.0     -1000.0     -1000.0     -1000.0     -1000.0     -1000.0     -1000.0    
  71  -1000.0     -1000.0     -1000.0     -1000.0     -1000.0     -1000.0     -1000.0     -1000.0     -1000.0     -1000.0    
      -1000.0     -1000.0     -1000.0     -1000.0     -1000.0     -1000.0     -1000.0     -1000.0     -1000.0     -1000.0    
      -1000.0     -1000.0     -1000.0     -1000.0     -1000.0     -1000.0     -1000.0     -1000.0     -1000.0     -1000.0    
      -1000.0       1.000       1.000     -1000.0     -1000.0     -1000.0     -1000.0     -1000.0     -1000.0     -1000.0    
      -1000.0     -1000.0     -1000.0     -1000.0     -1000.0     -1000.0     -1000.0     -1000.0     -1000.0     -1000.0    
      -1000.0     -1000.0     -1000.0     -1000.0     -1000.0     -1000.0     -1000.0     -1000.0     -1000.0     -1000.0    
      -1000.0     -1000.0     -1000.0     -1000.0     -1000.0     -1000.0     -1000.0     -1000.0     -1000.0     -1000.0    
      -1000.0     -1000.0     -1000.0     -1000.0     -1000.0     -1000.0     -1000.0     -1000.0     -1000.0     -1000.0    
      -1000.0     -1000.0     -1000.0     -1000.0     -1000.0     -1000.0     -1000.0     -1000.0     -1000.0     -1000.0    
      -1000.0     -1000.0     -1000.0     -1000.0     -1000.0     -1000.0     -1000.0     -1000.0     -1000.0     -1000.0    
  72  -1000.0     -1000.0     -1000.0     -1000.0     -1000.0     -1000.0     -1000.0     -1000.0     -1000.0     -1000.0    
      -1000.0     -1000.0     -1000.0     -1000.0     -1000.0     -1000.0     -1000.0     -1000.0     -1000.0     -1000.0    
      -1000.0     -1000.0     -1000.0     -1000.0     -1000.0     -1000.0     -1000.0     -1000.0     -1000.0     -1000.0    
      -1000.0       1.000     -1000.0     -1000.0     -1000.0     -1000.0     -1000.0     -1000.0     -1000.0     -1000.0    
      -1000.0     -1000.0     -1000.0     -1000.0     -1000.0     -1000.0     -1000.0     -1000.0     -1000.0     -1000.0    
      -1000.0     -1000.0     -1000.0     -1000.0     -1000.0     -1000.0     -1000.0     -1000.0     -1000.0     -1000.0    
      -1000.0     -1000.0     -1000.0     -1000.0     -1000.0     -1000.0     -1000.0     -1000.0     -1000.0     -1000.0    
      -1000.0     -1000.0     -1000.0     -1000.0     -1000.0     -1000.0     -1000.0     -1000.0     -1000.0     -1000.0    
      -1000.0     -1000.0     -1000.0     -1000.0     -1000.0     -1000.0     -1000.0     -1000.0     -1000.0     -1000.0    
      -1000.0     -1000.0     -1000.0     -1000.0     -1000.0     -1000.0     -1000.0     -1000.0     -1000.0     -1000.0    
  73  -1000.0     -1000.0     -1000.0     -1000.0     -1000.0     -1000.0     -1000.0     -1000.0     -1000.0     -1000.0    
      -1000.0     -1000.0     -1000.0     -1000.0     -1000.0     -1000.0     -1000.0     -1000.0     -1000.0     -1000.0    
      -1000.0     -1000.0     -1000.0     -1000.0     -1000.0     -1000.0     -1000.0     -1000.0     -1000.0     -1000.0    
      -1000.0     -1000.0     -1000.0     -1000.0     -1000.0     -1000.0     -1000.0     -1000.0     -1000.0     -1000.0    
      -1000.0     -1000.0     -1000.0     -1000.0     -1000.0     -1000.0     -1000.0     -1000.0     -1000.0     -1000.0    
      -1000.0     -1000.0     -1000.0     -1000.0     -1000.0     -1000.0     -1000.0     -1000.0     -1000.0     -1000.0    
      -1000.0     -1000.0     -1000.0     -1000.0     -1000.0     -1000.0     -1000.0     -1000.0     -1000.0     -1000.0    
      -1000.0     -1000.0     -1000.0     -1000.0     -1000.0     -1000.0     -1000.0     -1000.0     -1000.0     -1000.0    
      -1000.0     -1000.0     -1000.0     -1000.0     -1000.0     -1000.0     -1000.0     -1000.0     -1000.0     -1000.0    
      -1000.0     -1000.0     -1000.0     -1000.0     -1000.0     -1000.0     -1000.0     -1000.0     -1000.0     -1000.0    
  74  -1000.0     -1000.0     -1000.0     -1000.0     -1000.0     -1000.0     -1000.0     -1000.0     -1000.0     -1000.0    
      -1000.0     -1000.0     -1000.0     -1000.0     -1000.0     -1000.0     -1000.0     -1000.0     -1000.0     -1000.0    
      -1000.0     -1000.0     -1000.0     -1000.0     -1000.0     -1000.0     -1000.0     -1000.0     -1000.0     -1000.0    
      -1000.0     -1000.0     -1000.0     -1000.0     -1000.0     -1000.0     -1000.0     -1000.0     -1000.0     -1000.0    
      -1000.0     -1000.0     -1000.0     -1000.0     -1000.0     -1000.0     -1000.0     -1000.0     -1000.0     -1000.0    
      -1000.0     -1000.0     -1000.0     -1000.0     -1000.0     -1000.0     -1000.0     -1000.0     -1000.0     -1000.0    
      -1000.0     -1000.0     -1000.0     -1000.0     -1000.0     -1000.0     -1000.0     -1000.0     -1000.0     -1000.0    
      -1000.0     -1000.0     -1000.0     -1000.0     -1000.0     -1000.0     -1000.0     -1000.0     -1000.0     -1000.0    
      -1000.0     -1000.0     -1000.0     -1000.0     -1000.0     -1000.0     -1000.0     -1000.0     -1000.0     -1000.0    
      -1000.0     -1000.0     -1000.0     -1000.0     -1000.0     -1000.0     -1000.0     -1000.0     -1000.0     -1000.0    
  75  -1000.0     -1000.0     -1000.0     -1000.0     -1000.0     -1000.0     -1000.0     -1000.0     -1000.0     -1000.0    
      -1000.0     -1000.0     -1000.0     -1000.0     -1000.0     -1000.0     -1000.0     -1000.0     -1000.0     -1000.0    
      -1000.0     -1000.0     -1000.0     -1000.0     -1000.0     -1000.0     -1000.0     -1000.0     -1000.0     -1000.0    
      -1000.0     -1000.0     -1000.0     -1000.0     -1000.0     -1000.0     -1000.0     -1000.0     -1000.0     -1000.0    
      -1000.0     -1000.0     -1000.0     -1000.0     -1000.0     -1000.0     -1000.0     -1000.0     -1000.0     -1000.0    
      -1000.0     -1000.0     -1000.0     -1000.0     -1000.0     -1000.0     -1000.0     -1000.0     -1000.0     -1000.0    
      -1000.0     -1000.0     -1000.0     -1000.0     -1000.0     -1000.0     -1000.0     -1000.0     -1000.0     -1000.0    
      -1000.0     -1000.0     -1000.0     -1000.0     -1000.0     -1000.0     -1000.0     -1000.0     -1000.0     -1000.0    
      -1000.0     -1000.0     -1000.0     -1000.0     -1000.0     -1000.0     -1000.0     -1000.0     -1000.0     -1000.0    
      -1000.0     -1000.0     -1000.0     -1000.0     -1000.0     -1000.0     -1000.0     -1000.0     -1000.0     -1000.0    

 HEAD WILL BE SAVED ON UNIT   51 AT END OF TIME STEP    1, STRESS PERIOD    1
1
  VOLUMETRIC BUDGET FOR ENTIRE MODEL AT END OF TIME STEP    1, STRESS PERIOD   1
  ------------------------------------------------------------------------------

     CUMULATIVE VOLUMES      L**3       RATES FOR THIS TIME STEP      L**3/T
     ------------------                 ------------------------

           IN:                                      IN:
           ---                                      ---
             STORAGE =           0.0000               STORAGE =           0.0000
       CONSTANT HEAD =           0.0000         CONSTANT HEAD =           0.0000
            RECHARGE =      751250.5625              RECHARGE =      751250.5625

            TOTAL IN =      751250.5625              TOTAL IN =      751250.5625

          OUT:                                     OUT:
          ----                                     ----
             STORAGE =           0.0000               STORAGE =           0.0000
       CONSTANT HEAD =      751250.5625         CONSTANT HEAD =      751250.5625
            RECHARGE =           0.0000              RECHARGE =           0.0000

           TOTAL OUT =      751250.5625             TOTAL OUT =      751250.5625

            IN - OUT =           0.0000              IN - OUT =           0.0000

 PERCENT DISCREPANCY =           0.00     PERCENT DISCREPANCY =           0.00






         TIME SUMMARY AT END OF TIME STEP    1 IN STRESS PERIOD    1
                    SECONDS     MINUTES      HOURS       DAYS        YEARS
                    -----------------------------------------------------------
   TIME STEP LENGTH  86400.      1440.0      24.000      1.0000     2.73785E-03
 STRESS PERIOD TIME  86400.      1440.0      24.000      1.0000     2.73785E-03
         TOTAL TIME  86400.      1440.0      24.000      1.0000     2.73785E-03
1

 HEAD AND DRAWDOWN OBSERVATIONS
 OBSERVATION       OBSERVED           SIMULATED
   NAME              VALUE              VALUE             DIFFERENCE
 --------------------------------------------------------------------
 FLI182          5.5000000000        1.8018541336        3.6981458664    
 214601         0.20000000298        1.6475424767       -1.4475424290    
 214602         0.40000000596        1.6567860842       -1.2567861080    
 Taputimuwind   0.30000001192        1.3086119890       -1.0086119175    
 214604         0.60000002384        1.3701207638      -0.77012073994    
 Malaeloa70      2.5999999046        2.4844591618       0.11554074287    
 MOA15           2.2999999523        3.0621027946      -0.76210284233    
 MOA169          3.5000000000        3.1989119053       0.30108809471    
 Puapua47        1.2000000477        2.3519890308       -1.1519889832    
 TGH1            3.5999999046        3.5484075546       5.15923500061E-02
 Malaeloa92      1.2000000477        2.4624574184       -1.2624573708    
 Malaeloa91      1.7999999523        2.7390515804      -0.93905162811    
 TGH3            1.8999999762        2.0973050594      -0.19730508327    
 PAV177          1.2999999523        2.8675558567       -1.5675559044    
 Iliili79       0.89999997616        2.1377890110       -1.2377890348    
 Iliili62        2.5999999046        1.9840091467       0.61599075794    
 MES6            44.700000763        3.4201157093        41.279884338    
 ILI76           1.6000000238        1.9823307991      -0.38233077526    
 Iliili74        1.7999999523        1.8790508509      -7.90508985519E-02
 194407          3.0000000000        3.3333539963      -0.33335399628    
 Iliili84        1.7999999523        1.8318438530      -3.18439006805E-02
 MMI3            5.9000000954        4.8154053688        1.0845947266    
 Malaeimi109     8.1999998093        4.2570476532        3.9429521561    
 Malaeimi89      6.0000000000        3.1005327702        2.8994672298    
 Malaeimi67      3.2000000477        2.9999294281       0.20007061958    
 MMI4            16.500000000        6.3327035904        10.167296410    
 194409          25.399999619        5.3560991287        20.043899536    
 214301         0.60000002384        1.0000000000      -0.39999997616    
 MMI1            20.299999237        4.9216346741        15.378364563    
 TAF72           1.7999999523        2.2432892323      -0.44328927994    
 204301         0.30000001192        1.7137596607       -1.4137597084    
 204302         0.50000000000        1.0000000000      -0.50000000000    
 194302          1.0000000000        1.3823720217      -0.38237202168    
 VAI183          62.500000000        34.243297577        28.256702423    
 NUULI24B        15.800000191        13.612267494        2.1877326965    
 Pago100(wate    1.2000000477        1.0000000000       0.20000004768    
 PAGO163         7.3000001907        11.521661758       -4.2216615677    
 PAGOTANK24      1.2000000477        1.0000000000       0.20000004768    
 Pagoplaza12     3.0000000000        1.0000000000        2.0000000000    
 FALU179         2.7000000477        4.2500543594       -1.5500543118    
 174101          6.0999999046        1.0000000000        5.0999999046    
 UTULEI3        0.10000000149        1.0000000000      -0.89999997616    
 Sailele130      2.7000000477        2.3013823032       0.39861774445    
 163502          5.3000001907        1.0000000000        4.3000001907    
 163301          5.6999998093        1.0000000000        4.6999998093    
 MALAEIMI88      12.350000381        3.6745748520        8.6754255295    
 MMI2            21.100000381        5.8757548332        15.224245071    
 Malaeimi69      5.3000001907        2.6737034321        2.6262967587    
 194311         0.87500000000        2.3862817287       -1.5112817287    
 194304          1.9333000183        2.1837520599      -0.25045204163    
 164204          9.1750001907        19.111036301       -9.9360361099    
 Pago107         16.466699600        25.011083603       -8.5443840027    
 Fagatogo102     6.6500000954        15.430015564       -8.7800159454    
 VATI170         8.1499996185        11.326773643       -3.1767740250    
 163903          5.5666999817        16.018404007       -10.451704025    
 AUA98           4.9000000954        16.942667007       -12.042667389    
 LAU96           6.6500000954        5.0611600876        1.5888400078    
 153401          3.0499999523        1.0000000000        2.0499999523    

 HEAD/DRAWDOWN SUM OF SQUARED DIFFERENCE:    4.23298E+03

 Run end date and time (yyyy/mm/dd hh:mm:ss): 2019/03/23 23:07:30
 Elapsed run time:  0.018 Seconds

