                                  MODFLOW-2005     
      U.S. GEOLOGICAL SURVEY MODULAR FINITE-DIFFERENCE GROUND-WATER FLOW MODEL
                            VERSION 1.12.00 2/3/2017

 LIST FILE: modelface.list
                         UNIT    2

 OPENING modelface.dis
 FILE TYPE:DIS   UNIT   11   STATUS:OLD    
 FORMAT:FORMATTED              ACCESS:SEQUENTIAL          

 OPENING modelface.bas
 FILE TYPE:BAS6   UNIT   13   STATUS:OLD    
 FORMAT:FORMATTED              ACCESS:SEQUENTIAL          

 OPENING modelface.lpf
 FILE TYPE:LPF   UNIT   15   STATUS:OLD    
 FORMAT:FORMATTED              ACCESS:SEQUENTIAL          

 OPENING modelface.rch
 FILE TYPE:RCH   UNIT   19   STATUS:OLD    
 FORMAT:FORMATTED              ACCESS:SEQUENTIAL          

 OPENING modelface.oc
 FILE TYPE:OC   UNIT   14   STATUS:OLD    
 FORMAT:FORMATTED              ACCESS:SEQUENTIAL          

 OPENING modelface.pcg
 FILE TYPE:PCG   UNIT   27   STATUS:OLD    
 FORMAT:FORMATTED              ACCESS:SEQUENTIAL          

 OPENING modelface.swi2
 FILE TYPE:SWI2   UNIT   29   STATUS:OLD    
 FORMAT:FORMATTED              ACCESS:SEQUENTIAL          

 OPENING modelface.hob
 FILE TYPE:HOB   UNIT   39   STATUS:OLD    
 FORMAT:FORMATTED              ACCESS:SEQUENTIAL          

 OPENING modelface.hds
 FILE TYPE:DATA(BINARY)   UNIT   51   STATUS:REPLACE
 FORMAT:BINARY                 ACCESS:SEQUENTIAL          

 OPENING modelface.zta
 FILE TYPE:DATA(BINARY)   UNIT   55   STATUS:REPLACE
 FORMAT:BINARY                 ACCESS:SEQUENTIAL          

 OPENING modelface.hob.out
 FILE TYPE:DATA   UNIT    7   STATUS:UNKNOWN
 FORMAT:FORMATTED              ACCESS:SEQUENTIAL          

 BAS -- BASIC PACKAGE, VERSION 7, 5/2/2005 INPUT READ FROM UNIT   13
 
 MODFLOW was compiled using mixed precision
 Precision of REAL variables:           6
 Precision of DOUBLE PRECISION variables:          15

 DISCRETIZATION INPUT DATA READ FROM UNIT   11
 # DIS package for  MODFLOW-2005, generated by Flopy.
    1 LAYERS       100 ROWS       200 COLUMNS
    1 STRESS PERIOD(S) IN SIMULATION
 MODEL TIME UNIT IS DAYS
 MODEL LENGTH UNIT IS METERS
  Confining bed flag for each layer:
   0

                     DELR =   169.000    

                     DELC =   165.000    



           TOP ELEVATION OF LAYER 1
 READING ON UNIT   11 WITH FORMAT: (200E15.6)          

   MODEL LAYER BOTTOM EL. =  -1250.00     FOR LAYER   1


 STRESS PERIOD     LENGTH       TIME STEPS     MULTIPLIER FOR DELT    SS FLAG
 ----------------------------------------------------------------------------
        1         146100.0        400                    1.000         SS

 STEADY-STATE SIMULATION



 
 # BAS6 package for  MODFLOW-2005, generated by Flopy.                           
 THE FREE FORMAT OPTION HAS BEEN SELECTED



                     BOUNDARY ARRAY FOR LAYER   1
 READING ON UNIT   13 WITH FORMAT: (200I10)            

 AQUIFER HEAD WILL BE SET TO  -999.99     AT ALL NO-FLOW NODES (IBOUND=0).



                       INITIAL HEAD FOR LAYER   1
 READING ON UNIT   13 WITH FORMAT: (200E15.6)          
 # OC package for  MODFLOW-2005, generated by Flopy.

 OUTPUT CONTROL IS SPECIFIED ONLY AT TIME STEPS FOR WHICH OUTPUT IS DESIRED
 COMPACT CELL-BY-CELL BUDGET FILES WILL BE WRITTEN
 AUXILIARY DATA WILL BE SAVED IN CELL-BY-CELL BUDGET FILES
 HEAD PRINT FORMAT CODE IS   0    DRAWDOWN PRINT FORMAT CODE IS   0
 HEADS WILL BE SAVED ON UNIT   51    DRAWDOWNS WILL BE SAVED ON UNIT    0

 LPF -- LAYER-PROPERTY FLOW PACKAGE, VERSION 7, 5/2/2005
         INPUT READ FROM UNIT   15
 # LPF package for  MODFLOW-2005, generated by Flopy.
 HEAD AT CELLS THAT CONVERT TO DRY= -1.00000E+30
 No named parameters

   LAYER FLAGS:
 LAYER       LAYTYP        LAYAVG         CHANI        LAYVKA        LAYWET
 ---------------------------------------------------------------------------
    1             0             0     1.000E+00             0             0

   INTERPRETATION OF LAYER FLAGS:
                        INTERBLOCK     HORIZONTAL    DATA IN
         LAYER TYPE   TRANSMISSIVITY   ANISOTROPY   ARRAY VKA   WETTABILITY
 LAYER      (LAYTYP)      (LAYAVG)       (CHANI)      (LAYVKA)      (LAYWET)
 ---------------------------------------------------------------------------
    1      CONFINED      HARMONIC     1.000E+00    VERTICAL K  NON-WETTABLE

 WETTING CAPABILITY IS NOT ACTIVE IN ANY LAYER



              HYD. COND. ALONG ROWS FOR LAYER   1
 READING ON UNIT   15 WITH FORMAT: (200E15.6)          

      VERTICAL HYD. COND. =   10.0000     FOR LAYER   1

 RCH -- RECHARGE PACKAGE, VERSION 7, 5/2/2005 INPUT READ FROM UNIT   19
 # RCH package for  MODFLOW-2005, generated by Flopy.
 No named parameters
 OPTION 3 -- RECHARGE TO HIGHEST ACTIVE NODE IN EACH VERTICAL COLUMN


     0 Recharge parameters

 PCG -- CONJUGATE-GRADIENT SOLUTION PACKAGE, VERSION 7, 5/2/2005
 # PCG package for  MODFLOW-2005, generated by Flopy.
 MAXIMUM OF    100 CALLS OF SOLUTION ROUTINE
 MAXIMUM OF     50 INTERNAL ITERATIONS PER CALL TO SOLUTION ROUTINE
 MATRIX PRECONDITIONING TYPE :    1



                                    SOLUTION BY THE CONJUGATE-GRADIENT METHOD
                                   -------------------------------------------
                    MAXIMUM NUMBER OF CALLS TO PCG ROUTINE =      100
                        MAXIMUM ITERATIONS PER CALL TO PCG =       50
                               MATRIX PRECONDITIONING TYPE =        1
        RELAXATION FACTOR (ONLY USED WITH PRECOND. TYPE 1) =    0.10000E+01
 PARAMETER OF POLYNOMIAL PRECOND. = 2 (2) OR IS CALCULATED :        0
                         HEAD CHANGE CRITERION FOR CLOSURE =    0.10000E-05
                     RESIDUAL CHANGE CRITERION FOR CLOSURE =    0.30000E-02
            PCG HEAD AND RESIDUAL CHANGE PRINTOUT INTERVAL =      999
     PRINTING FROM SOLVER IS LIMITED(1) OR SUPPRESSED (>1) =        3
                            STEADY-STATE DAMPING PARAMETER =    0.10000E+01
                               TRANSIENT DAMPING PARAMETER =    0.10000E+01


 SWI2 -- SWI PACKAGE, VERSION 2.0.0, 07/22/2013
 --------------------------------------------------
 SWI2 INPUT READ FROM UNIT 29


 # SWI2 package for  MODFLOW-2005, generated by Flopy.
 # Dataset 1


 SWI2 DATASET 1
 ----------------------------------------------------
 NUMBER OF SURFACES (NSRF):                         1
 TOTAL NUMBER OF ZONES:                             2
 DENSITY DISTRIBUTION OPTION (ISTRAT):              1
   VARIABLE DENSITY FLOW -- ISTRAT = 0
   STRATIFIED FLOW       -- ISTRAT = 1
 NUMBER OF SWI OBSERVATIONS (NOBS):                 0
 ZETA OUTPUT FILE UNIT NUMBER (ISWIZT):            55
 BUDGET OUTPUT FILE UNIT NUMBER (ISWICB):           0
 OBSERVATION OUTPUT FILE UNIT NUMBER (ISWIOBS):     0
 ----------------------------------------------------
 # Dataset 2a


 SWI2 DATASET 2A
 ----------------------------------------------------
 SOLVER (NSOLVER):                                  1
   SOLVER =                      DIRECT SOLVER (DE4)
 SOLVER PRINTOUT INTERVAL (IPRSOL):               999
 SOLVER OUTPUT FLAG (MUTSOL):                       3
   0 = PRINTING EVERY ITERATION
   1 = LIMITED (TOTAL NUMBER OF ITERATIONS)
   2 = NO PRINTING
   3 = ONLY IF CONVERGENCE FAILS
 ----------------------------------------------------
 # Dataset 3a


 SWI2 DATASET 3A
 ----------------------------------------------------
 MAXIMUM TOE SURFACE SLOPE (TOESLOPE):      0.500E-02
 MAXIMUM TIP SURFACE SLOPE (TIPSLOPE):      0.500E-02
 EXCESS SURFACE SLOPE FRACTION (ALPHA):     0.100    
 MINIMUM ZONE THICKNESS FRACTION (BETA):    0.100    
 ----------------------------------------------------



                             NUZONE
 READING ON UNIT   29 WITH FORMAT: (2E15.6)            



                   ZETA SURFACE  1  FOR LAYER   1
 READING ON UNIT   29 WITH FORMAT: (200E15.6)          

                      SSZ =  0.200000     FOR LAYER   1



                            IZONENR FOR LAYER   1
 READING ON UNIT   29 WITH FORMAT: (200I10)            

 OBS2BAS7 -- HEAD OBSERVATIONS, VERSION 2.0, 2/28/2006
 INPUT READ FROM UNIT  39
 # HOB package for  MODFLOW-2005, generated by Flopy.

 NUMBER OF HEADS....................................:   64
   NUMBER OF MULTILAYER HEADS.......................:    0
   MAXIMUM NUMBER OF LAYERS FOR MULTILAYER HEADS....:    0
 HEAD OBSERVATIONS WILL BE SAVED ON UNIT............:    7
 SIMULATED EQUIVALENT HEAD AT DRY CELLS WILL BE:   -999.000    

 OBSERVED HEAD DATA -- TIME OFFSETS ARE MULTIPLIED BY:   1.0000    

                    REFER.
       OBSERVATION  STRESS    TIME
  OBS#    NAME      PERIOD   OFFSET    OBSERVATION
     1 Obs_0            1    0.000       5.500    
 Observation within a steady-state time step has been moved to the end of the time step.
     2 Obs_1            1    0.000      0.2000    
 Observation within a steady-state time step has been moved to the end of the time step.
     3 Obs_2            1    0.000      0.4000    
 Observation within a steady-state time step has been moved to the end of the time step.
     4 Obs_3            1    0.000      0.3000    
 Observation within a steady-state time step has been moved to the end of the time step.
     5 Obs_4            1    0.000      0.6000    
 Observation within a steady-state time step has been moved to the end of the time step.
     6 Obs_5            1    0.000       2.300    
 Observation within a steady-state time step has been moved to the end of the time step.
     7 Obs_6            1    0.000       2.600    
 Observation within a steady-state time step has been moved to the end of the time step.
     8 Obs_7            1    0.000       3.500    
 Observation within a steady-state time step has been moved to the end of the time step.
     9 Obs_8            1    0.000       1.200    
 Observation within a steady-state time step has been moved to the end of the time step.
    10 Obs_9            1    0.000       3.600    
 Observation within a steady-state time step has been moved to the end of the time step.
    11 Obs_10           1    0.000       1.500    
 Observation within a steady-state time step has been moved to the end of the time step.
    12 Obs_11           1    0.000       1.900    
 Observation within a steady-state time step has been moved to the end of the time step.
    13 Obs_12           1    0.000       1.300    
 Observation within a steady-state time step has been moved to the end of the time step.
    14 Obs_13           1    0.000      0.9000    
 Observation within a steady-state time step has been moved to the end of the time step.
    15 Obs_14           1    0.000       44.70    
 Observation within a steady-state time step has been moved to the end of the time step.
    16 Obs_15           1    0.000       2.600    
 Observation within a steady-state time step has been moved to the end of the time step.
    17 Obs_16           1    0.000       1.700    
 Observation within a steady-state time step has been moved to the end of the time step.
    18 Obs_17           1    0.000       3.000    
 Observation within a steady-state time step has been moved to the end of the time step.
    19 Obs_18           1    0.000       1.800    
 Observation within a steady-state time step has been moved to the end of the time step.
    20 Obs_19           1    0.000       5.900    
 Observation within a steady-state time step has been moved to the end of the time step.
    21 Obs_20           1    0.000       19.20    
 Observation within a steady-state time step has been moved to the end of the time step.
    22 Obs_21           1    0.000       8.000    
 Observation within a steady-state time step has been moved to the end of the time step.
    23 Obs_22           1    0.000       8.200    
 Observation within a steady-state time step has been moved to the end of the time step.
    24 Obs_23           1    0.000       5.750    
 Observation within a steady-state time step has been moved to the end of the time step.
    25 Obs_24           1    0.000       34.20    
 Observation within a steady-state time step has been moved to the end of the time step.
    26 Obs_25           1    0.000       3.200    
 Observation within a steady-state time step has been moved to the end of the time step.
    27 Obs_26           1    0.000       16.50    
 Observation within a steady-state time step has been moved to the end of the time step.
    28 Obs_27           1    0.000       25.40    
 Observation within a steady-state time step has been moved to the end of the time step.
    29 Obs_28           1    0.000       1.800    
 Observation within a steady-state time step has been moved to the end of the time step.
    30 Obs_29           1    0.000       8.800    
 Observation within a steady-state time step has been moved to the end of the time step.
    31 Obs_30           1    0.000      0.8500    
 Observation within a steady-state time step has been moved to the end of the time step.
    32 Obs_31           1    0.000      0.9000    
 Observation within a steady-state time step has been moved to the end of the time step.
    33 Obs_32           1    0.000      0.6000    
 Observation within a steady-state time step has been moved to the end of the time step.
    34 Obs_33           1    0.000       20.30    
 Observation within a steady-state time step has been moved to the end of the time step.
    35 Obs_34           1    0.000       1.800    
 Observation within a steady-state time step has been moved to the end of the time step.
    36 Obs_35           1    0.000       1.933    
 Observation within a steady-state time step has been moved to the end of the time step.
    37 Obs_36           1    0.000      0.3000    
 Observation within a steady-state time step has been moved to the end of the time step.
    38 Obs_37           1    0.000      0.5000    
 Observation within a steady-state time step has been moved to the end of the time step.
    39 Obs_38           1    0.000       1.000    
 Observation within a steady-state time step has been moved to the end of the time step.
    40 Obs_39           1    0.000       62.50    
 Observation within a steady-state time step has been moved to the end of the time step.
    41 Obs_40           1    0.000       15.80    
 Observation within a steady-state time step has been moved to the end of the time step.
    42 Obs_41           1    0.000       1.200    
 Observation within a steady-state time step has been moved to the end of the time step.
    43 Obs_42           1    0.000       7.300    
 Observation within a steady-state time step has been moved to the end of the time step.
    44 Obs_43           1    0.000       7.300    
 Observation within a steady-state time step has been moved to the end of the time step.
    45 Obs_44           1    0.000       9.800    
 Observation within a steady-state time step has been moved to the end of the time step.
    46 Obs_45           1    0.000       16.47    
 Observation within a steady-state time step has been moved to the end of the time step.
    47 Obs_46           1    0.000       1.200    
 Observation within a steady-state time step has been moved to the end of the time step.
    48 Obs_47           1    0.000       3.000    
 Observation within a steady-state time step has been moved to the end of the time step.
    49 Obs_48           1    0.000       6.650    
 Observation within a steady-state time step has been moved to the end of the time step.
    50 Obs_49           1    0.000       2.700    
 Observation within a steady-state time step has been moved to the end of the time step.
    51 Obs_50           1    0.000       6.100    
 Observation within a steady-state time step has been moved to the end of the time step.
    52 Obs_51           1    0.000      0.1000    
 Observation within a steady-state time step has been moved to the end of the time step.
    53 Obs_52           1    0.000       8.100    
 Observation within a steady-state time step has been moved to the end of the time step.
    54 Obs_53           1    0.000       8.200    
 Observation within a steady-state time step has been moved to the end of the time step.
    55 Obs_54           1    0.000       4.300    
 Observation within a steady-state time step has been moved to the end of the time step.
    56 Obs_55           1    0.000       5.567    
 Observation within a steady-state time step has been moved to the end of the time step.
    57 Obs_56           1    0.000       5.500    
 Observation within a steady-state time step has been moved to the end of the time step.
    58 Obs_57           1    0.000       7.300    
 Observation within a steady-state time step has been moved to the end of the time step.
    59 Obs_58           1    0.000       6.000    
 Observation within a steady-state time step has been moved to the end of the time step.
    60 Obs_59           1    0.000       2.700    
 Observation within a steady-state time step has been moved to the end of the time step.
    61 Obs_60           1    0.000       5.300    
 Observation within a steady-state time step has been moved to the end of the time step.
    62 Obs_61           1    0.000       3.100    
 Observation within a steady-state time step has been moved to the end of the time step.
    63 Obs_62           1    0.000       3.000    
 Observation within a steady-state time step has been moved to the end of the time step.
    64 Obs_63           1    0.000       5.700    
 Observation within a steady-state time step has been moved to the end of the time step.

                                                     HEAD CHANGE
                                                      REFERENCE
        OBSERVATION                   ROW     COL    OBSERVATION
  OBS#     NAME       LAY  ROW  COL  OFFSET  OFFSET   (IF > 0)
     1  Obs_0           1   55   22   0.000   0.000        0
     2  Obs_1           1   78   50   0.000   0.000        0
     3  Obs_2           1   81   52   0.000   0.000        0
     4  Obs_3           1   86   52   0.000   0.000        0
     5  Obs_4           1   85   53   0.000   0.000        0
     6  Obs_5           1   71   55   0.000   0.000        0
     7  Obs_6           1   74   55   0.000   0.000        0
     8  Obs_7           1   70   56   0.000   0.000        0
     9  Obs_8           1   77   57   0.000   0.000        0
    10  Obs_9           1   70   59   0.000   0.000        0
    11  Obs_10          1   76   60   0.000   0.000        0
    12  Obs_11          1   79   69   0.000   0.000        0
    13  Obs_12          1   72   71   0.000   0.000        0
    14  Obs_13          1   79   71   0.000   0.000        0
    15  Obs_14          1   64   72   0.000   0.000        0
    16  Obs_15          1   79   72   0.000   0.000        0
    17  Obs_16          1   79   73   0.000   0.000        0
    18  Obs_17          1   63   75   0.000   0.000        0
    19  Obs_18          1   78   75   0.000   0.000        0
    20  Obs_19          1   56   77   0.000   0.000        0
    21  Obs_20          1   60   77   0.000   0.000        0
    22  Obs_21          1   54   78   0.000   0.000        0
    23  Obs_22          1   58   78   0.000   0.000        0
    24  Obs_23          1   59   78   0.000   0.000        0
    25  Obs_24          1   54   79   0.000   0.000        0
    26  Obs_25          1   60   79   0.000   0.000        0
    27  Obs_26          1   52   80   0.000   0.000        0
    28  Obs_27          1   57   80   0.000   0.000        0
    29  Obs_28          1   60   80   0.000   0.000        0
    30  Obs_29          1   59   81   0.000   0.000        0
    31  Obs_30          1   64   81   0.000   0.000        0
    32  Obs_31          1   65   81   0.000   0.000        0
    33  Obs_32          1   84   81   0.000   0.000        0
    34  Obs_33          1   56   82   0.000   0.000        0
    35  Obs_34          1   62   82   0.000   0.000        0
    36  Obs_35          1   64   82   0.000   0.000        0
    37  Obs_36          1   68   85   0.000   0.000        0
    38  Obs_37          1   76   88   0.000   0.000        0
    39  Obs_38          1   63   89   0.000   0.000        0
    40  Obs_39          1   36   96   0.000   0.000        0
    41  Obs_40          1   51   97   0.000   0.000        0
    42  Obs_41          1   29   98   0.000   0.000        0
    43  Obs_42          1   30   98   0.000   0.000        0
    44  Obs_43          1   31   98   0.000   0.000        0
    45  Obs_44          1   32   99   0.000   0.000        0
    46  Obs_45          1   33   99   0.000   0.000        0
    47  Obs_46          1   27  100   0.000   0.000        0
    48  Obs_47          1   29  101   0.000   0.000        0
    49  Obs_48          1   34  107   0.000   0.000        0
    50  Obs_49          1   42  110   0.000   0.000        0
    51  Obs_50          1   41  112   0.000   0.000        0
    52  Obs_51          1   34  114   0.000   0.000        0
    53  Obs_52          1   17  122   0.000   0.000        0
    54  Obs_53          1   17  123   0.000   0.000        0
    55  Obs_54          1   26  127   0.000   0.000        0
    56  Obs_55          1   27  127   0.000   0.000        0
    57  Obs_56          1   27  128   0.000   0.000        0
    58  Obs_57          1   36  133   0.000   0.000        0
    59  Obs_58          1   37  133   0.000   0.000        0
    60  Obs_59          1   19  169   0.000   0.000        0
    61  Obs_60          1   30  174   0.000   0.000        0
    62  Obs_61          1   16  186   0.000   0.000        0
    63  Obs_62          1   15  187   0.000   0.000        0
    64  Obs_63          1   24  188   0.000   0.000        0
1
                            STRESS PERIOD NO.    1, LENGTH =   146100.0    
                            -----------------------------------------------

                              NUMBER OF TIME STEPS =   400

                               MULTIPLIER FOR DELT =     1.000

                            INITIAL TIME STEP SIZE =   365.2500    



                           RECHARGE
 READING ON UNIT   19 WITH FORMAT: (200E15.6)          
 
 SOLVING FOR HEAD 

 NO OUTPUT CONTROL FOR STRESS PERIOD    1   TIME STEP    1
 SOLVING FOR ZETA FOR LAYER     1 ZONE     2

    2487 UPPER PART EQS.      2489 LOWER PART EQS.    BAND WIDTH + 1 =   77
 STRESS PERIOD=  1 TIMESTEP=  1 LAYER=  1 ZONE=  2 ACTIVE CELLS= 4976 NUMBER OF EQUATIONS=    4976
 
 SOLVING FOR HEAD 

 NO OUTPUT CONTROL FOR STRESS PERIOD    1   TIME STEP    2
 SOLVING FOR ZETA FOR LAYER     1 ZONE     2

    2737 UPPER PART EQS.      2739 LOWER PART EQS.    BAND WIDTH + 1 =   79
 STRESS PERIOD=  1 TIMESTEP=  2 LAYER=  1 ZONE=  2 ACTIVE CELLS= 5476 NUMBER OF EQUATIONS=    5476
 
 SOLVING FOR HEAD 

 NO OUTPUT CONTROL FOR STRESS PERIOD    1   TIME STEP    3
 SOLVING FOR ZETA FOR LAYER     1 ZONE     2

    2648 UPPER PART EQS.      2650 LOWER PART EQS.    BAND WIDTH + 1 =   79
 STRESS PERIOD=  1 TIMESTEP=  3 LAYER=  1 ZONE=  2 ACTIVE CELLS= 5298 NUMBER OF EQUATIONS=    5298
 
 SOLVING FOR HEAD 

 NO OUTPUT CONTROL FOR STRESS PERIOD    1   TIME STEP    4
 SOLVING FOR ZETA FOR LAYER     1 ZONE     2

    2882 UPPER PART EQS.      2878 LOWER PART EQS.    BAND WIDTH + 1 =   83
 STRESS PERIOD=  1 TIMESTEP=  4 LAYER=  1 ZONE=  2 ACTIVE CELLS= 5760 NUMBER OF EQUATIONS=    5760
 
 SOLVING FOR HEAD 

 NO OUTPUT CONTROL FOR STRESS PERIOD    1   TIME STEP    5
 SOLVING FOR ZETA FOR LAYER     1 ZONE     2

    2834 UPPER PART EQS.      2822 LOWER PART EQS.    BAND WIDTH + 1 =   82
 STRESS PERIOD=  1 TIMESTEP=  5 LAYER=  1 ZONE=  2 ACTIVE CELLS= 5656 NUMBER OF EQUATIONS=    5656
 
 SOLVING FOR HEAD 

 NO OUTPUT CONTROL FOR STRESS PERIOD    1   TIME STEP    6
 SOLVING FOR ZETA FOR LAYER     1 ZONE     2

    3040 UPPER PART EQS.      3048 LOWER PART EQS.    BAND WIDTH + 1 =   86
 STRESS PERIOD=  1 TIMESTEP=  6 LAYER=  1 ZONE=  2 ACTIVE CELLS= 6088 NUMBER OF EQUATIONS=    6088
 
 SOLVING FOR HEAD 

 NO OUTPUT CONTROL FOR STRESS PERIOD    1   TIME STEP    7
 SOLVING FOR ZETA FOR LAYER     1 ZONE     2

    3049 UPPER PART EQS.      3024 LOWER PART EQS.    BAND WIDTH + 1 =   86
 STRESS PERIOD=  1 TIMESTEP=  7 LAYER=  1 ZONE=  2 ACTIVE CELLS= 6073 NUMBER OF EQUATIONS=    6073
 
 SOLVING FOR HEAD 

 NO OUTPUT CONTROL FOR STRESS PERIOD    1   TIME STEP    8
 SOLVING FOR ZETA FOR LAYER     1 ZONE     2

    3188 UPPER PART EQS.      3204 LOWER PART EQS.    BAND WIDTH + 1 =   93
 STRESS PERIOD=  1 TIMESTEP=  8 LAYER=  1 ZONE=  2 ACTIVE CELLS= 6392 NUMBER OF EQUATIONS=    6392
 
 SOLVING FOR HEAD 

 NO OUTPUT CONTROL FOR STRESS PERIOD    1   TIME STEP    9
 SOLVING FOR ZETA FOR LAYER     1 ZONE     2

    3134 UPPER PART EQS.      3126 LOWER PART EQS.    BAND WIDTH + 1 =   97
 STRESS PERIOD=  1 TIMESTEP=  9 LAYER=  1 ZONE=  2 ACTIVE CELLS= 6260 NUMBER OF EQUATIONS=    6260
 
 SOLVING FOR HEAD 

 NO OUTPUT CONTROL FOR STRESS PERIOD    1   TIME STEP   10
 SOLVING FOR ZETA FOR LAYER     1 ZONE     2

    3315 UPPER PART EQS.      3336 LOWER PART EQS.    BAND WIDTH + 1 =   92
 STRESS PERIOD=  1 TIMESTEP= 10 LAYER=  1 ZONE=  2 ACTIVE CELLS= 6651 NUMBER OF EQUATIONS=    6651
 
 SOLVING FOR HEAD 

 NO OUTPUT CONTROL FOR STRESS PERIOD    1   TIME STEP   11
 SOLVING FOR ZETA FOR LAYER     1 ZONE     2

    3271 UPPER PART EQS.      3273 LOWER PART EQS.    BAND WIDTH + 1 =   94
 STRESS PERIOD=  1 TIMESTEP= 11 LAYER=  1 ZONE=  2 ACTIVE CELLS= 6544 NUMBER OF EQUATIONS=    6544
 
 SOLVING FOR HEAD 

 NO OUTPUT CONTROL FOR STRESS PERIOD    1   TIME STEP   12
 SOLVING FOR ZETA FOR LAYER     1 ZONE     2

    3424 UPPER PART EQS.      3433 LOWER PART EQS.    BAND WIDTH + 1 =   98
 STRESS PERIOD=  1 TIMESTEP= 12 LAYER=  1 ZONE=  2 ACTIVE CELLS= 6857 NUMBER OF EQUATIONS=    6857
 
 SOLVING FOR HEAD 

 NO OUTPUT CONTROL FOR STRESS PERIOD    1   TIME STEP   13
 SOLVING FOR ZETA FOR LAYER     1 ZONE     2

    3370 UPPER PART EQS.      3381 LOWER PART EQS.    BAND WIDTH + 1 =   93
 STRESS PERIOD=  1 TIMESTEP= 13 LAYER=  1 ZONE=  2 ACTIVE CELLS= 6751 NUMBER OF EQUATIONS=    6751
 
 SOLVING FOR HEAD 

 NO OUTPUT CONTROL FOR STRESS PERIOD    1   TIME STEP   14
 SOLVING FOR ZETA FOR LAYER     1 ZONE     2

    3543 UPPER PART EQS.      3542 LOWER PART EQS.    BAND WIDTH + 1 =   90
 STRESS PERIOD=  1 TIMESTEP= 14 LAYER=  1 ZONE=  2 ACTIVE CELLS= 7085 NUMBER OF EQUATIONS=    7085
 
 SOLVING FOR HEAD 

 NO OUTPUT CONTROL FOR STRESS PERIOD    1   TIME STEP   15
 SOLVING FOR ZETA FOR LAYER     1 ZONE     2

    3498 UPPER PART EQS.      3485 LOWER PART EQS.    BAND WIDTH + 1 =   94
 STRESS PERIOD=  1 TIMESTEP= 15 LAYER=  1 ZONE=  2 ACTIVE CELLS= 6983 NUMBER OF EQUATIONS=    6983
 
 SOLVING FOR HEAD 

 NO OUTPUT CONTROL FOR STRESS PERIOD    1   TIME STEP   16
 SOLVING FOR ZETA FOR LAYER     1 ZONE     2

    3692 UPPER PART EQS.      3691 LOWER PART EQS.    BAND WIDTH + 1 =   95
 STRESS PERIOD=  1 TIMESTEP= 16 LAYER=  1 ZONE=  2 ACTIVE CELLS= 7383 NUMBER OF EQUATIONS=    7383
 
 SOLVING FOR HEAD 

 NO OUTPUT CONTROL FOR STRESS PERIOD    1   TIME STEP   17
 SOLVING FOR ZETA FOR LAYER     1 ZONE     2

    3629 UPPER PART EQS.      3635 LOWER PART EQS.    BAND WIDTH + 1 =  100
 STRESS PERIOD=  1 TIMESTEP= 17 LAYER=  1 ZONE=  2 ACTIVE CELLS= 7264 NUMBER OF EQUATIONS=    7264
 
 SOLVING FOR HEAD 

 NO OUTPUT CONTROL FOR STRESS PERIOD    1   TIME STEP   18
 SOLVING FOR ZETA FOR LAYER     1 ZONE     2

    3859 UPPER PART EQS.      3854 LOWER PART EQS.    BAND WIDTH + 1 =   99
 STRESS PERIOD=  1 TIMESTEP= 18 LAYER=  1 ZONE=  2 ACTIVE CELLS= 7713 NUMBER OF EQUATIONS=    7713
 
 SOLVING FOR HEAD 

 NO OUTPUT CONTROL FOR STRESS PERIOD    1   TIME STEP   19
 SOLVING FOR ZETA FOR LAYER     1 ZONE     2

    3783 UPPER PART EQS.      3789 LOWER PART EQS.    BAND WIDTH + 1 =   98
 STRESS PERIOD=  1 TIMESTEP= 19 LAYER=  1 ZONE=  2 ACTIVE CELLS= 7572 NUMBER OF EQUATIONS=    7572
 
 SOLVING FOR HEAD 

 OUTPUT CONTROL FOR STRESS PERIOD    1   TIME STEP   20
    SAVE HEAD FOR ALL LAYERS
    PRINT BUDGET
 SOLVING FOR ZETA FOR LAYER     1 ZONE     2

    4013 UPPER PART EQS.      3994 LOWER PART EQS.    BAND WIDTH + 1 =   97
 STRESS PERIOD=  1 TIMESTEP= 20 LAYER=  1 ZONE=  2 ACTIVE CELLS= 8007 NUMBER OF EQUATIONS=    8007
 UBUDSV SAVING "      ZETASRF  1" ON UNIT 55 AT TIME STEP 20, STRESS PERIOD    1


                      VOLUMETRIC SWI ZONE BUDGET FOR ENTIRE MODEL
                     AT END OF TIME STEP   20 IN STRESS PERIOD   1
                                      ZONE     1
  -----------------------------------------------------------------------------------

        CUMULATIVE VOLUMES      L**3       RATES FOR THIS TIME STEP      L**3/T
        ------------------                 ------------------------

              IN:                                      IN:
              ---                                      ---
             BOUNDARIES =  5990287360.0000            BOUNDARIES =      821553.8125
          CONSTANT HEAD =           0.0000         CONSTANT HEAD =           0.0000
            ZONE CHANGE =   405488608.0000           ZONE CHANGE =       88188.9453
       ZONE CHG TIP/TOE =     2955503.7500      ZONE CHG TIP/TOE =         353.1252
            ZONE MIXING =           0.0000           ZONE MIXING =           0.0000

               TOTAL IN =  6398731264.0000              TOTAL IN =      910095.8750

             OUT:                                     OUT:
             ----                                     ----
             BOUNDARIES =           0.0000            BOUNDARIES =           0.0000
          CONSTANT HEAD =  3140321280.0000         CONSTANT HEAD =      695124.6250
            ZONE CHANGE =  5572630016.0000           ZONE CHANGE =      641743.1875
       ZONE CHG TIP/TOE =     2078867.6250      ZONE CHG TIP/TOE =         262.1719
            ZONE MIXING =           0.0000           ZONE MIXING =           0.0000

              TOTAL OUT =  8715030528.0000             TOTAL OUT =     1337129.8750

               IN - OUT = -2316299264.0000              IN - OUT =     -427034.0000

    PERCENT DISCREPANCY =         -30.65     PERCENT DISCREPANCY =         -38.01



                      VOLUMETRIC SWI ZONE BUDGET FOR ENTIRE MODEL
                     AT END OF TIME STEP   20 IN STRESS PERIOD   1
                                      ZONE     2
  -----------------------------------------------------------------------------------

        CUMULATIVE VOLUMES      L**3       RATES FOR THIS TIME STEP      L**3/T
        ------------------                 ------------------------

              IN:                                      IN:
              ---                                      ---
             BOUNDARIES =    19502488.0000            BOUNDARIES =        1141.6171
          CONSTANT HEAD =    20326030.0000         CONSTANT HEAD =        2768.6675
            ZONE CHANGE =  5572630016.0000           ZONE CHANGE =      641743.1875
       ZONE CHG TIP/TOE =   625767168.0000      ZONE CHG TIP/TOE =      121911.9766
            ZONE MIXING =           0.0000           ZONE MIXING =           0.0000

               TOTAL IN =  6238225408.0000              TOTAL IN =      767565.5000

             OUT:                                     OUT:
             ----                                     ----
             BOUNDARIES =           0.0000            BOUNDARIES =           0.0000
          CONSTANT HEAD =  2889795072.0000         CONSTANT HEAD =      130339.5000
            ZONE CHANGE =  1029176960.0000           ZONE CHANGE =      209838.7500
       ZONE CHG TIP/TOE =     2955503.7500      ZONE CHG TIP/TOE =         353.1252
            ZONE MIXING =           0.0000           ZONE MIXING =           0.0000

              TOTAL OUT =  3921927424.0000             TOTAL OUT =      340531.3750

               IN - OUT =  2316297984.0000              IN - OUT =      427034.1250

    PERCENT DISCREPANCY =          45.60     PERCENT DISCREPANCY =          77.08


 HEAD WILL BE SAVED ON UNIT   51 AT END OF TIME STEP   20, STRESS PERIOD    1
1
  VOLUMETRIC BUDGET FOR ENTIRE MODEL AT END OF TIME STEP   20, STRESS PERIOD   1
  ------------------------------------------------------------------------------

     CUMULATIVE VOLUMES      L**3       RATES FOR THIS TIME STEP      L**3/T
     ------------------                 ------------------------

           IN:                                      IN:
           ---                                      ---
             STORAGE =           0.0000               STORAGE =           0.0000
       CONSTANT HEAD =   592798784.0000         CONSTANT HEAD =       84660.8203
          SWIADDTOCH =  5217695232.0000            SWIADDTOCH =     1618890.3750
            RECHARGE =  6009790464.0000              RECHARGE =      822695.3750

            TOTAL IN = 11820283904.0000              TOTAL IN =     2526246.5000

          OUT:                                     OUT:
          ----                                     ----
             STORAGE =           0.0000               STORAGE =           0.0000
       CONSTANT HEAD = 10916686848.0000         CONSTANT HEAD =     2477416.7500
          SWIADDTOCH =   903596544.0000            SWIADDTOCH =       48829.8672
            RECHARGE =           0.0000              RECHARGE =           0.0000

           TOTAL OUT = 11820283904.0000             TOTAL OUT =     2526246.5000

            IN - OUT =           0.0000              IN - OUT =           0.0000

 PERCENT DISCREPANCY =           0.00     PERCENT DISCREPANCY =           0.00






         TIME SUMMARY AT END OF TIME STEP   20 IN STRESS PERIOD    1
                    SECONDS     MINUTES      HOURS       DAYS        YEARS
                    -----------------------------------------------------------
   TIME STEP LENGTH 3.15576E+07 5.25960E+05  8766.0      365.25      1.0000    
 STRESS PERIOD TIME 6.31152E+08 1.05192E+07 1.75320E+05  7305.0      20.000    
         TOTAL TIME 6.31152E+08 1.05192E+07 1.75320E+05  7305.0      20.000    
1
 
 SOLVING FOR HEAD 

 NO OUTPUT CONTROL FOR STRESS PERIOD    1   TIME STEP   21
 SOLVING FOR ZETA FOR LAYER     1 ZONE     2

    3935 UPPER PART EQS.      3941 LOWER PART EQS.    BAND WIDTH + 1 =   97
 STRESS PERIOD=  1 TIMESTEP= 21 LAYER=  1 ZONE=  2 ACTIVE CELLS= 7876 NUMBER OF EQUATIONS=    7876
 
 SOLVING FOR HEAD 

 NO OUTPUT CONTROL FOR STRESS PERIOD    1   TIME STEP   22
 SOLVING FOR ZETA FOR LAYER     1 ZONE     2

    4159 UPPER PART EQS.      4145 LOWER PART EQS.    BAND WIDTH + 1 =   95
 STRESS PERIOD=  1 TIMESTEP= 22 LAYER=  1 ZONE=  2 ACTIVE CELLS= 8304 NUMBER OF EQUATIONS=    8304
 
 SOLVING FOR HEAD 

 NO OUTPUT CONTROL FOR STRESS PERIOD    1   TIME STEP   23
 SOLVING FOR ZETA FOR LAYER     1 ZONE     2

    4071 UPPER PART EQS.      4088 LOWER PART EQS.    BAND WIDTH + 1 =   98
 STRESS PERIOD=  1 TIMESTEP= 23 LAYER=  1 ZONE=  2 ACTIVE CELLS= 8159 NUMBER OF EQUATIONS=    8159
 
 SOLVING FOR HEAD 

 NO OUTPUT CONTROL FOR STRESS PERIOD    1   TIME STEP   24
 SOLVING FOR ZETA FOR LAYER     1 ZONE     2

    4301 UPPER PART EQS.      4285 LOWER PART EQS.    BAND WIDTH + 1 =   96
 STRESS PERIOD=  1 TIMESTEP= 24 LAYER=  1 ZONE=  2 ACTIVE CELLS= 8586 NUMBER OF EQUATIONS=    8586
 
 SOLVING FOR HEAD 

 NO OUTPUT CONTROL FOR STRESS PERIOD    1   TIME STEP   25
 SOLVING FOR ZETA FOR LAYER     1 ZONE     2

    4234 UPPER PART EQS.      4264 LOWER PART EQS.    BAND WIDTH + 1 =   98
 STRESS PERIOD=  1 TIMESTEP= 25 LAYER=  1 ZONE=  2 ACTIVE CELLS= 8498 NUMBER OF EQUATIONS=    8498
 
 SOLVING FOR HEAD 

 NO OUTPUT CONTROL FOR STRESS PERIOD    1   TIME STEP   26
 SOLVING FOR ZETA FOR LAYER     1 ZONE     2

    4460 UPPER PART EQS.      4437 LOWER PART EQS.    BAND WIDTH + 1 =  101
 STRESS PERIOD=  1 TIMESTEP= 26 LAYER=  1 ZONE=  2 ACTIVE CELLS= 8897 NUMBER OF EQUATIONS=    8897
 
 SOLVING FOR HEAD 

 NO OUTPUT CONTROL FOR STRESS PERIOD    1   TIME STEP   27
 SOLVING FOR ZETA FOR LAYER     1 ZONE     2

    4397 UPPER PART EQS.      4400 LOWER PART EQS.    BAND WIDTH + 1 =  102
 STRESS PERIOD=  1 TIMESTEP= 27 LAYER=  1 ZONE=  2 ACTIVE CELLS= 8797 NUMBER OF EQUATIONS=    8797
 
 SOLVING FOR HEAD 

 NO OUTPUT CONTROL FOR STRESS PERIOD    1   TIME STEP   28
 SOLVING FOR ZETA FOR LAYER     1 ZONE     2

    4607 UPPER PART EQS.      4570 LOWER PART EQS.    BAND WIDTH + 1 =  107
 INSUFFICIENT MEMORY FOR DE4 SOLVER:
 MXBW MUST BE AT LEAST  107
 
 SOLVING FOR HEAD 

 NO OUTPUT CONTROL FOR STRESS PERIOD    1   TIME STEP   29
 SOLVING FOR ZETA FOR LAYER     1 ZONE     2

    4666 UPPER PART EQS.      4677 LOWER PART EQS.    BAND WIDTH + 1 =   98
 STRESS PERIOD=  1 TIMESTEP= 29 LAYER=  1 ZONE=  2 ACTIVE CELLS= 9343 NUMBER OF EQUATIONS=    9343
 
 SOLVING FOR HEAD 

 NO OUTPUT CONTROL FOR STRESS PERIOD    1   TIME STEP   30
 SOLVING FOR ZETA FOR LAYER     1 ZONE     2

    4461 UPPER PART EQS.      4424 LOWER PART EQS.    BAND WIDTH + 1 =  101
 STRESS PERIOD=  1 TIMESTEP= 30 LAYER=  1 ZONE=  2 ACTIVE CELLS= 8885 NUMBER OF EQUATIONS=    8885
 
 SOLVING FOR HEAD 

 NO OUTPUT CONTROL FOR STRESS PERIOD    1   TIME STEP   31
 SOLVING FOR ZETA FOR LAYER     1 ZONE     2

    4746 UPPER PART EQS.      4728 LOWER PART EQS.    BAND WIDTH + 1 =   96
 STRESS PERIOD=  1 TIMESTEP= 31 LAYER=  1 ZONE=  2 ACTIVE CELLS= 9474 NUMBER OF EQUATIONS=    9474
 
 SOLVING FOR HEAD 

 NO OUTPUT CONTROL FOR STRESS PERIOD    1   TIME STEP   32
 SOLVING FOR ZETA FOR LAYER     1 ZONE     2

    4603 UPPER PART EQS.      4594 LOWER PART EQS.    BAND WIDTH + 1 =  106
 INSUFFICIENT MEMORY FOR DE4 SOLVER:
 MXBW MUST BE AT LEAST  106
 
 SOLVING FOR HEAD 

 NO OUTPUT CONTROL FOR STRESS PERIOD    1   TIME STEP   33
 SOLVING FOR ZETA FOR LAYER     1 ZONE     2

    4818 UPPER PART EQS.      4799 LOWER PART EQS.    BAND WIDTH + 1 =  108
 INSUFFICIENT MEMORY FOR DE4 SOLVER:
 MXBW MUST BE AT LEAST  108
 
 SOLVING FOR HEAD 

 NO OUTPUT CONTROL FOR STRESS PERIOD    1   TIME STEP   34
 SOLVING FOR ZETA FOR LAYER     1 ZONE     2

    4875 UPPER PART EQS.      4854 LOWER PART EQS.    BAND WIDTH + 1 =  112
 INSUFFICIENT MEMORY FOR DE4 SOLVER:
 MXBW MUST BE AT LEAST  112
 
 SOLVING FOR HEAD 

 NO OUTPUT CONTROL FOR STRESS PERIOD    1   TIME STEP   35
 SOLVING FOR ZETA FOR LAYER     1 ZONE     2

    4889 UPPER PART EQS.      4902 LOWER PART EQS.    BAND WIDTH + 1 =  102
 STRESS PERIOD=  1 TIMESTEP= 35 LAYER=  1 ZONE=  2 ACTIVE CELLS= 9791 NUMBER OF EQUATIONS=    9791
 
 SOLVING FOR HEAD 

 NO OUTPUT CONTROL FOR STRESS PERIOD    1   TIME STEP   36
 SOLVING FOR ZETA FOR LAYER     1 ZONE     2

    4669 UPPER PART EQS.      4609 LOWER PART EQS.    BAND WIDTH + 1 =  102
 STRESS PERIOD=  1 TIMESTEP= 36 LAYER=  1 ZONE=  2 ACTIVE CELLS= 9278 NUMBER OF EQUATIONS=    9278
 
 SOLVING FOR HEAD 

 NO OUTPUT CONTROL FOR STRESS PERIOD    1   TIME STEP   37
 SOLVING FOR ZETA FOR LAYER     1 ZONE     2

    4953 UPPER PART EQS.      4976 LOWER PART EQS.    BAND WIDTH + 1 =   99
 STRESS PERIOD=  1 TIMESTEP= 37 LAYER=  1 ZONE=  2 ACTIVE CELLS= 9929 NUMBER OF EQUATIONS=    9929
 
 SOLVING FOR HEAD 

 NO OUTPUT CONTROL FOR STRESS PERIOD    1   TIME STEP   38
 SOLVING FOR ZETA FOR LAYER     1 ZONE     2

    4894 UPPER PART EQS.      4834 LOWER PART EQS.    BAND WIDTH + 1 =  100
 STRESS PERIOD=  1 TIMESTEP= 38 LAYER=  1 ZONE=  2 ACTIVE CELLS= 9728 NUMBER OF EQUATIONS=    9728
 
 SOLVING FOR HEAD 

 NO OUTPUT CONTROL FOR STRESS PERIOD    1   TIME STEP   39
 SOLVING FOR ZETA FOR LAYER     1 ZONE     2

    5062 UPPER PART EQS.      5093 LOWER PART EQS.    BAND WIDTH + 1 =  105
 STRESS PERIOD=  1 TIMESTEP= 39 LAYER=  1 ZONE=  2 ACTIVE CELLS=10155 NUMBER OF EQUATIONS=   10155
 
 SOLVING FOR HEAD 

 OUTPUT CONTROL FOR STRESS PERIOD    1   TIME STEP   40
    SAVE HEAD FOR ALL LAYERS
    PRINT BUDGET
 SOLVING FOR ZETA FOR LAYER     1 ZONE     2

    4969 UPPER PART EQS.      4937 LOWER PART EQS.    BAND WIDTH + 1 =  104
 STRESS PERIOD=  1 TIMESTEP= 40 LAYER=  1 ZONE=  2 ACTIVE CELLS= 9906 NUMBER OF EQUATIONS=    9906
 UBUDSV SAVING "      ZETASRF  1" ON UNIT 55 AT TIME STEP 40, STRESS PERIOD    1


                      VOLUMETRIC SWI ZONE BUDGET FOR ENTIRE MODEL
                     AT END OF TIME STEP   40 IN STRESS PERIOD   1
                                      ZONE     1
  -----------------------------------------------------------------------------------

        CUMULATIVE VOLUMES      L**3       RATES FOR THIS TIME STEP      L**3/T
        ------------------                 ------------------------

              IN:                                      IN:
              ---                                      ---
             BOUNDARIES = 11991902208.0000            BOUNDARIES =      821414.2500
          CONSTANT HEAD =           0.0000         CONSTANT HEAD =           0.0000
            ZONE CHANGE =   750950272.0000           ZONE CHANGE =       20022.1621
       ZONE CHG TIP/TOE =     6171188.0000      ZONE CHG TIP/TOE =         685.5291
            ZONE MIXING =           0.0000           ZONE MIXING =           0.0000

               TOTAL IN = 12749024256.0000              TOTAL IN =      842121.9375

             OUT:                                     OUT:
             ----                                     ----
             BOUNDARIES =           0.0000            BOUNDARIES =           0.0000
          CONSTANT HEAD =  7263928320.0000         CONSTANT HEAD =      343599.5000
            ZONE CHANGE =  9735178240.0000           ZONE CHANGE =      796520.2500
       ZONE CHG TIP/TOE =     4416516.5000      ZONE CHG TIP/TOE =         462.3956
            ZONE MIXING =           0.0000           ZONE MIXING =           0.0000

              TOTAL OUT = 17003523072.0000             TOTAL OUT =     1140582.1250

               IN - OUT = -4254498816.0000              IN - OUT =     -298460.1875

    PERCENT DISCREPANCY =         -28.60     PERCENT DISCREPANCY =         -30.11



                      VOLUMETRIC SWI ZONE BUDGET FOR ENTIRE MODEL
                     AT END OF TIME STEP   40 IN STRESS PERIOD   1
                                      ZONE     2
  -----------------------------------------------------------------------------------

        CUMULATIVE VOLUMES      L**3       RATES FOR THIS TIME STEP      L**3/T
        ------------------                 ------------------------

              IN:                                      IN:
              ---                                      ---
             BOUNDARIES =    27676284.0000            BOUNDARIES =        1281.1368
          CONSTANT HEAD =    46792652.0000         CONSTANT HEAD =        3991.7383
            ZONE CHANGE =  9735178240.0000           ZONE CHANGE =      796520.2500
       ZONE CHG TIP/TOE =  1057520064.0000      ZONE CHG TIP/TOE =       14127.8301
            ZONE MIXING =           0.0000           ZONE MIXING =           0.0000

               TOTAL IN = 10867167232.0000              TOTAL IN =      815920.9375

             OUT:                                     OUT:
             ----                                     ----
             BOUNDARIES =           0.0000            BOUNDARIES =           0.0000
          CONSTANT HEAD =  4802444800.0000         CONSTANT HEAD =      483087.6875
            ZONE CHANGE =  1804054016.0000           ZONE CHANGE =       33687.5977
       ZONE CHG TIP/TOE =     6171188.0000      ZONE CHG TIP/TOE =         685.5291
            ZONE MIXING =           0.0000           ZONE MIXING =           0.0000

              TOTAL OUT =  6612669952.0000             TOTAL OUT =      517460.8125

               IN - OUT =  4254497280.0000              IN - OUT =      298460.1250

    PERCENT DISCREPANCY =          48.68     PERCENT DISCREPANCY =          44.77


 HEAD WILL BE SAVED ON UNIT   51 AT END OF TIME STEP   40, STRESS PERIOD    1
1
  VOLUMETRIC BUDGET FOR ENTIRE MODEL AT END OF TIME STEP   40, STRESS PERIOD   1
  ------------------------------------------------------------------------------

     CUMULATIVE VOLUMES      L**3       RATES FOR THIS TIME STEP      L**3/T
     ------------------                 ------------------------

           IN:                                      IN:
           ---                                      ---
             STORAGE =           0.0000               STORAGE =           0.0000
       CONSTANT HEAD =  1212250496.0000         CONSTANT HEAD =       73138.8984
          SWIADDTOCH = 25868726272.0000            SWIADDTOCH =     3941435.2500
            RECHARGE = 12019585024.0000              RECHARGE =      822695.3750

            TOTAL IN = 39100563456.0000              TOTAL IN =     4837269.5000

          OUT:                                     OUT:
          ----                                     ----
             STORAGE =           0.0000               STORAGE =           0.0000
       CONSTANT HEAD = 37932523520.0000         CONSTANT HEAD =     4815538.0000
          SWIADDTOCH =  1168038912.0000            SWIADDTOCH =       21731.6543
            RECHARGE =           0.0000              RECHARGE =           0.0000

           TOTAL OUT = 39100563456.0000             TOTAL OUT =     4837269.5000

            IN - OUT =           0.0000              IN - OUT =           0.0000

 PERCENT DISCREPANCY =           0.00     PERCENT DISCREPANCY =           0.00






         TIME SUMMARY AT END OF TIME STEP   40 IN STRESS PERIOD    1
                    SECONDS     MINUTES      HOURS       DAYS        YEARS
                    -----------------------------------------------------------
   TIME STEP LENGTH 3.15576E+07 5.25960E+05  8766.0      365.25      1.0000    
 STRESS PERIOD TIME 1.26230E+09 2.10384E+07 3.50640E+05  14610.      40.000    
         TOTAL TIME 1.26230E+09 2.10384E+07 3.50640E+05  14610.      40.000    
1
 
 SOLVING FOR HEAD 

 NO OUTPUT CONTROL FOR STRESS PERIOD    1   TIME STEP   41
 SOLVING FOR ZETA FOR LAYER     1 ZONE     2

    5206 UPPER PART EQS.      5213 LOWER PART EQS.    BAND WIDTH + 1 =   98
 STRESS PERIOD=  1 TIMESTEP= 41 LAYER=  1 ZONE=  2 ACTIVE CELLS=10419 NUMBER OF EQUATIONS=   10419
 
 SOLVING FOR HEAD 

 NO OUTPUT CONTROL FOR STRESS PERIOD    1   TIME STEP   42
 SOLVING FOR ZETA FOR LAYER     1 ZONE     2

    5100 UPPER PART EQS.      5049 LOWER PART EQS.    BAND WIDTH + 1 =  103
 STRESS PERIOD=  1 TIMESTEP= 42 LAYER=  1 ZONE=  2 ACTIVE CELLS=10149 NUMBER OF EQUATIONS=   10149
 
 SOLVING FOR HEAD 

 NO OUTPUT CONTROL FOR STRESS PERIOD    1   TIME STEP   43
 SOLVING FOR ZETA FOR LAYER     1 ZONE     2

    5265 UPPER PART EQS.      5316 LOWER PART EQS.    BAND WIDTH + 1 =  107
 INSUFFICIENT MEMORY FOR DE4 SOLVER:
 MXBW MUST BE AT LEAST  107
 
 SOLVING FOR HEAD 

 NO OUTPUT CONTROL FOR STRESS PERIOD    1   TIME STEP   44
 SOLVING FOR ZETA FOR LAYER     1 ZONE     2

    5333 UPPER PART EQS.      5339 LOWER PART EQS.    BAND WIDTH + 1 =   97
 STRESS PERIOD=  1 TIMESTEP= 44 LAYER=  1 ZONE=  2 ACTIVE CELLS=10672 NUMBER OF EQUATIONS=   10672
 
 SOLVING FOR HEAD 

 NO OUTPUT CONTROL FOR STRESS PERIOD    1   TIME STEP   45
 SOLVING FOR ZETA FOR LAYER     1 ZONE     2

    5168 UPPER PART EQS.      5147 LOWER PART EQS.    BAND WIDTH + 1 =  101
 STRESS PERIOD=  1 TIMESTEP= 45 LAYER=  1 ZONE=  2 ACTIVE CELLS=10315 NUMBER OF EQUATIONS=   10315
 
 SOLVING FOR HEAD 

 NO OUTPUT CONTROL FOR STRESS PERIOD    1   TIME STEP   46
 SOLVING FOR ZETA FOR LAYER     1 ZONE     2

    5377 UPPER PART EQS.      5378 LOWER PART EQS.    BAND WIDTH + 1 =   98
 STRESS PERIOD=  1 TIMESTEP= 46 LAYER=  1 ZONE=  2 ACTIVE CELLS=10755 NUMBER OF EQUATIONS=   10755
 
 SOLVING FOR HEAD 

 NO OUTPUT CONTROL FOR STRESS PERIOD    1   TIME STEP   47
 SOLVING FOR ZETA FOR LAYER     1 ZONE     2

    5303 UPPER PART EQS.      5304 LOWER PART EQS.    BAND WIDTH + 1 =  111
 INSUFFICIENT MEMORY FOR DE4 SOLVER:
 MXBW MUST BE AT LEAST  111
 
 SOLVING FOR HEAD 

 NO OUTPUT CONTROL FOR STRESS PERIOD    1   TIME STEP   48
 SOLVING FOR ZETA FOR LAYER     1 ZONE     2

    5485 UPPER PART EQS.      5486 LOWER PART EQS.    BAND WIDTH + 1 =  119
 INSUFFICIENT MEMORY FOR DE4 SOLVER:
 MXBW MUST BE AT LEAST  119
 
 SOLVING FOR HEAD 

 NO OUTPUT CONTROL FOR STRESS PERIOD    1   TIME STEP   49
 SOLVING FOR ZETA FOR LAYER     1 ZONE     2

    5556 UPPER PART EQS.      5544 LOWER PART EQS.    BAND WIDTH + 1 =  109
 INSUFFICIENT MEMORY FOR DE4 SOLVER:
 MXBW MUST BE AT LEAST  109
 
 SOLVING FOR HEAD 

 NO OUTPUT CONTROL FOR STRESS PERIOD    1   TIME STEP   50
 SOLVING FOR ZETA FOR LAYER     1 ZONE     2

    5579 UPPER PART EQS.      5568 LOWER PART EQS.    BAND WIDTH + 1 =  116
 INSUFFICIENT MEMORY FOR DE4 SOLVER:
 MXBW MUST BE AT LEAST  116
 
 SOLVING FOR HEAD 

 NO OUTPUT CONTROL FOR STRESS PERIOD    1   TIME STEP   51
 SOLVING FOR ZETA FOR LAYER     1 ZONE     2

    5594 UPPER PART EQS.      5615 LOWER PART EQS.    BAND WIDTH + 1 =  109
 INSUFFICIENT MEMORY FOR DE4 SOLVER:
 MXBW MUST BE AT LEAST  109
 
 SOLVING FOR HEAD 

 NO OUTPUT CONTROL FOR STRESS PERIOD    1   TIME STEP   52
 SOLVING FOR ZETA FOR LAYER     1 ZONE     2

    5632 UPPER PART EQS.      5608 LOWER PART EQS.    BAND WIDTH + 1 =  112
 INSUFFICIENT MEMORY FOR DE4 SOLVER:
 MXBW MUST BE AT LEAST  112
 
 SOLVING FOR HEAD 

 NO OUTPUT CONTROL FOR STRESS PERIOD    1   TIME STEP   53
 SOLVING FOR ZETA FOR LAYER     1 ZONE     2

    5627 UPPER PART EQS.      5650 LOWER PART EQS.    BAND WIDTH + 1 =  105
 STRESS PERIOD=  1 TIMESTEP= 53 LAYER=  1 ZONE=  2 ACTIVE CELLS=11277 NUMBER OF EQUATIONS=   11277
 
 SOLVING FOR HEAD 

 NO OUTPUT CONTROL FOR STRESS PERIOD    1   TIME STEP   54
 SOLVING FOR ZETA FOR LAYER     1 ZONE     2

    5235 UPPER PART EQS.      5211 LOWER PART EQS.    BAND WIDTH + 1 =  103
 STRESS PERIOD=  1 TIMESTEP= 54 LAYER=  1 ZONE=  2 ACTIVE CELLS=10446 NUMBER OF EQUATIONS=   10446
 
 SOLVING FOR HEAD 

 NO OUTPUT CONTROL FOR STRESS PERIOD    1   TIME STEP   55
 SOLVING FOR ZETA FOR LAYER     1 ZONE     2

    5539 UPPER PART EQS.      5552 LOWER PART EQS.    BAND WIDTH + 1 =  105
 STRESS PERIOD=  1 TIMESTEP= 55 LAYER=  1 ZONE=  2 ACTIVE CELLS=11091 NUMBER OF EQUATIONS=   11091
 
 SOLVING FOR HEAD 

 NO OUTPUT CONTROL FOR STRESS PERIOD    1   TIME STEP   56
 SOLVING FOR ZETA FOR LAYER     1 ZONE     2

    5426 UPPER PART EQS.      5435 LOWER PART EQS.    BAND WIDTH + 1 =  105
 STRESS PERIOD=  1 TIMESTEP= 56 LAYER=  1 ZONE=  2 ACTIVE CELLS=10861 NUMBER OF EQUATIONS=   10861
 
 SOLVING FOR HEAD 

 NO OUTPUT CONTROL FOR STRESS PERIOD    1   TIME STEP   57
 SOLVING FOR ZETA FOR LAYER     1 ZONE     2

    5583 UPPER PART EQS.      5588 LOWER PART EQS.    BAND WIDTH + 1 =   98
 STRESS PERIOD=  1 TIMESTEP= 57 LAYER=  1 ZONE=  2 ACTIVE CELLS=11171 NUMBER OF EQUATIONS=   11171
 
 SOLVING FOR HEAD 

 NO OUTPUT CONTROL FOR STRESS PERIOD    1   TIME STEP   58
 SOLVING FOR ZETA FOR LAYER     1 ZONE     2

    5443 UPPER PART EQS.      5444 LOWER PART EQS.    BAND WIDTH + 1 =  104
 STRESS PERIOD=  1 TIMESTEP= 58 LAYER=  1 ZONE=  2 ACTIVE CELLS=10887 NUMBER OF EQUATIONS=   10887
 
 SOLVING FOR HEAD 

 NO OUTPUT CONTROL FOR STRESS PERIOD    1   TIME STEP   59
 SOLVING FOR ZETA FOR LAYER     1 ZONE     2

    5633 UPPER PART EQS.      5626 LOWER PART EQS.    BAND WIDTH + 1 =  101
 STRESS PERIOD=  1 TIMESTEP= 59 LAYER=  1 ZONE=  2 ACTIVE CELLS=11259 NUMBER OF EQUATIONS=   11259
 
 SOLVING FOR HEAD 

 OUTPUT CONTROL FOR STRESS PERIOD    1   TIME STEP   60
    SAVE HEAD FOR ALL LAYERS
    PRINT BUDGET
 SOLVING FOR ZETA FOR LAYER     1 ZONE     2

    5472 UPPER PART EQS.      5480 LOWER PART EQS.    BAND WIDTH + 1 =  104
 STRESS PERIOD=  1 TIMESTEP= 60 LAYER=  1 ZONE=  2 ACTIVE CELLS=10952 NUMBER OF EQUATIONS=   10952
 UBUDSV SAVING "      ZETASRF  1" ON UNIT 55 AT TIME STEP 60, STRESS PERIOD    1


                      VOLUMETRIC SWI ZONE BUDGET FOR ENTIRE MODEL
                     AT END OF TIME STEP   60 IN STRESS PERIOD   1
                                      ZONE     1
  -----------------------------------------------------------------------------------

        CUMULATIVE VOLUMES      L**3       RATES FOR THIS TIME STEP      L**3/T
        ------------------                 ------------------------

              IN:                                      IN:
              ---                                      ---
             BOUNDARIES = 18000041984.0000            BOUNDARIES =      822517.2500
          CONSTANT HEAD =           0.0000         CONSTANT HEAD =           0.0000
            ZONE CHANGE =  1006427200.0000           ZONE CHANGE =       11474.5801
       ZONE CHG TIP/TOE =     8465947.0000      ZONE CHG TIP/TOE =         495.0601
            ZONE MIXING =           0.0000           ZONE MIXING =           0.0000

               TOTAL IN = 19014936576.0000              TOTAL IN =      834486.8750

             OUT:                                     OUT:
             ----                                     ----
             BOUNDARIES =           0.0000            BOUNDARIES =           0.0000
          CONSTANT HEAD = 12280951808.0000         CONSTANT HEAD =      492872.2500
            ZONE CHANGE = 12419817472.0000           ZONE CHANGE =      612797.8750
       ZONE CHG TIP/TOE =     6162083.5000      ZONE CHG TIP/TOE =         345.0824
            ZONE MIXING =           0.0000           ZONE MIXING =           0.0000

              TOTAL OUT = 24706930688.0000             TOTAL OUT =     1106015.2500

               IN - OUT = -5691994112.0000              IN - OUT =     -271528.3750

    PERCENT DISCREPANCY =         -26.04     PERCENT DISCREPANCY =         -27.99



                      VOLUMETRIC SWI ZONE BUDGET FOR ENTIRE MODEL
                     AT END OF TIME STEP   60 IN STRESS PERIOD   1
                                      ZONE     2
  -----------------------------------------------------------------------------------

        CUMULATIVE VOLUMES      L**3       RATES FOR THIS TIME STEP      L**3/T
        ------------------                 ------------------------

              IN:                                      IN:
              ---                                      ---
             BOUNDARIES =    29326640.0000            BOUNDARIES =         178.1523
          CONSTANT HEAD =    78347592.0000         CONSTANT HEAD =        4277.8198
            ZONE CHANGE = 12419817472.0000           ZONE CHANGE =      612797.8750
       ZONE CHG TIP/TOE =  1313217792.0000      ZONE CHG TIP/TOE =       11210.1162
            ZONE MIXING =           0.0000           ZONE MIXING =           0.0000

               TOTAL IN = 13840709632.0000              TOTAL IN =      628464.0000

             OUT:                                     OUT:
             ----                                     ----
             BOUNDARIES =           0.0000            BOUNDARIES =           0.0000
          CONSTANT HEAD =  5826765312.0000         CONSTANT HEAD =      334100.9688
            ZONE CHANGE =  2313482752.0000           ZONE CHANGE =       22339.6133
       ZONE CHG TIP/TOE =     8465947.0000      ZONE CHG TIP/TOE =         495.0601
            ZONE MIXING =           0.0000           ZONE MIXING =           0.0000

              TOTAL OUT =  8148713984.0000             TOTAL OUT =      356935.6562

               IN - OUT =  5691995648.0000              IN - OUT =      271528.3438

    PERCENT DISCREPANCY =          51.77     PERCENT DISCREPANCY =          55.11


 HEAD WILL BE SAVED ON UNIT   51 AT END OF TIME STEP   60, STRESS PERIOD    1
1
  VOLUMETRIC BUDGET FOR ENTIRE MODEL AT END OF TIME STEP   60, STRESS PERIOD   1
  ------------------------------------------------------------------------------

     CUMULATIVE VOLUMES      L**3       RATES FOR THIS TIME STEP      L**3/T
     ------------------                 ------------------------

           IN:                                      IN:
           ---                                      ---
             STORAGE =           0.0000               STORAGE =           0.0000
       CONSTANT HEAD =  1255975552.0000         CONSTANT HEAD =         261.1222
          SWIADDTOCH = 64447791104.0000            SWIADDTOCH =     5533778.0000
            RECHARGE = 18029377536.0000              RECHARGE =      822695.3750

            TOTAL IN = 83733143552.0000              TOTAL IN =     6356734.5000

          OUT:                                     OUT:
          ----                                     ----
             STORAGE =           0.0000               STORAGE =           0.0000
       CONSTANT HEAD = 82481209344.0000         CONSTANT HEAD =     6349151.0000
          SWIADDTOCH =  1251924864.0000            SWIADDTOCH =        7583.7339
            RECHARGE =           0.0000              RECHARGE =           0.0000

           TOTAL OUT = 83733135360.0000             TOTAL OUT =     6356734.5000

            IN - OUT =        8192.0000              IN - OUT =           0.0000

 PERCENT DISCREPANCY =           0.00     PERCENT DISCREPANCY =           0.00






         TIME SUMMARY AT END OF TIME STEP   60 IN STRESS PERIOD    1
                    SECONDS     MINUTES      HOURS       DAYS        YEARS
                    -----------------------------------------------------------
   TIME STEP LENGTH 3.15576E+07 5.25960E+05  8766.0      365.25      1.0000    
 STRESS PERIOD TIME 1.89346E+09 3.15576E+07 5.25960E+05  21915.      60.000    
         TOTAL TIME 1.89346E+09 3.15576E+07 5.25960E+05  21915.      60.000    
1
 
 SOLVING FOR HEAD 

 NO OUTPUT CONTROL FOR STRESS PERIOD    1   TIME STEP   61
 SOLVING FOR ZETA FOR LAYER     1 ZONE     2

    5644 UPPER PART EQS.      5629 LOWER PART EQS.    BAND WIDTH + 1 =  101
 STRESS PERIOD=  1 TIMESTEP= 61 LAYER=  1 ZONE=  2 ACTIVE CELLS=11273 NUMBER OF EQUATIONS=   11273
 
 SOLVING FOR HEAD 

 NO OUTPUT CONTROL FOR STRESS PERIOD    1   TIME STEP   62
 SOLVING FOR ZETA FOR LAYER     1 ZONE     2

    5517 UPPER PART EQS.      5542 LOWER PART EQS.    BAND WIDTH + 1 =  115
 INSUFFICIENT MEMORY FOR DE4 SOLVER:
 MXBW MUST BE AT LEAST  115
 
 SOLVING FOR HEAD 

 NO OUTPUT CONTROL FOR STRESS PERIOD    1   TIME STEP   63
 SOLVING FOR ZETA FOR LAYER     1 ZONE     2

    5703 UPPER PART EQS.      5678 LOWER PART EQS.    BAND WIDTH + 1 =  100
 STRESS PERIOD=  1 TIMESTEP= 63 LAYER=  1 ZONE=  2 ACTIVE CELLS=11381 NUMBER OF EQUATIONS=   11381
 
 SOLVING FOR HEAD 

 NO OUTPUT CONTROL FOR STRESS PERIOD    1   TIME STEP   64
 SOLVING FOR ZETA FOR LAYER     1 ZONE     2

    5497 UPPER PART EQS.      5509 LOWER PART EQS.    BAND WIDTH + 1 =  104
 STRESS PERIOD=  1 TIMESTEP= 64 LAYER=  1 ZONE=  2 ACTIVE CELLS=11006 NUMBER OF EQUATIONS=   11006
 
 SOLVING FOR HEAD 

 NO OUTPUT CONTROL FOR STRESS PERIOD    1   TIME STEP   65
 SOLVING FOR ZETA FOR LAYER     1 ZONE     2

    5674 UPPER PART EQS.      5686 LOWER PART EQS.    BAND WIDTH + 1 =  103
 STRESS PERIOD=  1 TIMESTEP= 65 LAYER=  1 ZONE=  2 ACTIVE CELLS=11360 NUMBER OF EQUATIONS=   11360
 
 SOLVING FOR HEAD 

 NO OUTPUT CONTROL FOR STRESS PERIOD    1   TIME STEP   66
 SOLVING FOR ZETA FOR LAYER     1 ZONE     2

    5565 UPPER PART EQS.      5568 LOWER PART EQS.    BAND WIDTH + 1 =  100
 STRESS PERIOD=  1 TIMESTEP= 66 LAYER=  1 ZONE=  2 ACTIVE CELLS=11133 NUMBER OF EQUATIONS=   11133
 
 SOLVING FOR HEAD 

 NO OUTPUT CONTROL FOR STRESS PERIOD    1   TIME STEP   67
 SOLVING FOR ZETA FOR LAYER     1 ZONE     2

    5667 UPPER PART EQS.      5675 LOWER PART EQS.    BAND WIDTH + 1 =  102
 STRESS PERIOD=  1 TIMESTEP= 67 LAYER=  1 ZONE=  2 ACTIVE CELLS=11342 NUMBER OF EQUATIONS=   11342
 
 SOLVING FOR HEAD 

 NO OUTPUT CONTROL FOR STRESS PERIOD    1   TIME STEP   68
 SOLVING FOR ZETA FOR LAYER     1 ZONE     2

    5586 UPPER PART EQS.      5599 LOWER PART EQS.    BAND WIDTH + 1 =  102
 STRESS PERIOD=  1 TIMESTEP= 68 LAYER=  1 ZONE=  2 ACTIVE CELLS=11185 NUMBER OF EQUATIONS=   11185
 
 SOLVING FOR HEAD 

 NO OUTPUT CONTROL FOR STRESS PERIOD    1   TIME STEP   69
 SOLVING FOR ZETA FOR LAYER     1 ZONE     2

    5708 UPPER PART EQS.      5728 LOWER PART EQS.    BAND WIDTH + 1 =   97
 STRESS PERIOD=  1 TIMESTEP= 69 LAYER=  1 ZONE=  2 ACTIVE CELLS=11436 NUMBER OF EQUATIONS=   11436
 
 SOLVING FOR HEAD 

 NO OUTPUT CONTROL FOR STRESS PERIOD    1   TIME STEP   70
 SOLVING FOR ZETA FOR LAYER     1 ZONE     2

    5638 UPPER PART EQS.      5634 LOWER PART EQS.    BAND WIDTH + 1 =   99
 STRESS PERIOD=  1 TIMESTEP= 70 LAYER=  1 ZONE=  2 ACTIVE CELLS=11272 NUMBER OF EQUATIONS=   11272
 
 SOLVING FOR HEAD 

 NO OUTPUT CONTROL FOR STRESS PERIOD    1   TIME STEP   71
 SOLVING FOR ZETA FOR LAYER     1 ZONE     2

    5722 UPPER PART EQS.      5750 LOWER PART EQS.    BAND WIDTH + 1 =  106
 INSUFFICIENT MEMORY FOR DE4 SOLVER:
 MXBW MUST BE AT LEAST  106
 
 SOLVING FOR HEAD 

 NO OUTPUT CONTROL FOR STRESS PERIOD    1   TIME STEP   72
 SOLVING FOR ZETA FOR LAYER     1 ZONE     2

    5787 UPPER PART EQS.      5785 LOWER PART EQS.    BAND WIDTH + 1 =  105
 STRESS PERIOD=  1 TIMESTEP= 72 LAYER=  1 ZONE=  2 ACTIVE CELLS=11572 NUMBER OF EQUATIONS=   11572
 
 SOLVING FOR HEAD 

 NO OUTPUT CONTROL FOR STRESS PERIOD    1   TIME STEP   73
 SOLVING FOR ZETA FOR LAYER     1 ZONE     2

    5656 UPPER PART EQS.      5660 LOWER PART EQS.    BAND WIDTH + 1 =   96
 STRESS PERIOD=  1 TIMESTEP= 73 LAYER=  1 ZONE=  2 ACTIVE CELLS=11316 NUMBER OF EQUATIONS=   11316
 
 SOLVING FOR HEAD 

 NO OUTPUT CONTROL FOR STRESS PERIOD    1   TIME STEP   74
 SOLVING FOR ZETA FOR LAYER     1 ZONE     2

    5768 UPPER PART EQS.      5770 LOWER PART EQS.    BAND WIDTH + 1 =   99
 STRESS PERIOD=  1 TIMESTEP= 74 LAYER=  1 ZONE=  2 ACTIVE CELLS=11538 NUMBER OF EQUATIONS=   11538
 
 SOLVING FOR HEAD 

 NO OUTPUT CONTROL FOR STRESS PERIOD    1   TIME STEP   75
 SOLVING FOR ZETA FOR LAYER     1 ZONE     2

    5689 UPPER PART EQS.      5699 LOWER PART EQS.    BAND WIDTH + 1 =  104
 STRESS PERIOD=  1 TIMESTEP= 75 LAYER=  1 ZONE=  2 ACTIVE CELLS=11388 NUMBER OF EQUATIONS=   11388
 
 SOLVING FOR HEAD 

 NO OUTPUT CONTROL FOR STRESS PERIOD    1   TIME STEP   76
 SOLVING FOR ZETA FOR LAYER     1 ZONE     2

    5783 UPPER PART EQS.      5783 LOWER PART EQS.    BAND WIDTH + 1 =  100
 STRESS PERIOD=  1 TIMESTEP= 76 LAYER=  1 ZONE=  2 ACTIVE CELLS=11566 NUMBER OF EQUATIONS=   11566
 
 SOLVING FOR HEAD 

 NO OUTPUT CONTROL FOR STRESS PERIOD    1   TIME STEP   77
 SOLVING FOR ZETA FOR LAYER     1 ZONE     2

    5728 UPPER PART EQS.      5733 LOWER PART EQS.    BAND WIDTH + 1 =  112
 INSUFFICIENT MEMORY FOR DE4 SOLVER:
 MXBW MUST BE AT LEAST  112
 
 SOLVING FOR HEAD 

 NO OUTPUT CONTROL FOR STRESS PERIOD    1   TIME STEP   78
 SOLVING FOR ZETA FOR LAYER     1 ZONE     2

    5864 UPPER PART EQS.      5848 LOWER PART EQS.    BAND WIDTH + 1 =  114
 INSUFFICIENT MEMORY FOR DE4 SOLVER:
 MXBW MUST BE AT LEAST  114
 
 SOLVING FOR HEAD 

 NO OUTPUT CONTROL FOR STRESS PERIOD    1   TIME STEP   79
 SOLVING FOR ZETA FOR LAYER     1 ZONE     2

    5898 UPPER PART EQS.      5900 LOWER PART EQS.    BAND WIDTH + 1 =  114
 INSUFFICIENT MEMORY FOR DE4 SOLVER:
 MXBW MUST BE AT LEAST  114
 
 SOLVING FOR HEAD 

 OUTPUT CONTROL FOR STRESS PERIOD    1   TIME STEP   80
    SAVE HEAD FOR ALL LAYERS
    PRINT BUDGET
 SOLVING FOR ZETA FOR LAYER     1 ZONE     2

    5920 UPPER PART EQS.      5916 LOWER PART EQS.    BAND WIDTH + 1 =  106
 INSUFFICIENT MEMORY FOR DE4 SOLVER:
 MXBW MUST BE AT LEAST  106
 UBUDSV SAVING "      ZETASRF  1" ON UNIT 55 AT TIME STEP 80, STRESS PERIOD    1


                      VOLUMETRIC SWI ZONE BUDGET FOR ENTIRE MODEL
                     AT END OF TIME STEP   80 IN STRESS PERIOD   1
                                      ZONE     1
  -----------------------------------------------------------------------------------

        CUMULATIVE VOLUMES      L**3       RATES FOR THIS TIME STEP      L**3/T
        ------------------                 ------------------------

              IN:                                      IN:
              ---                                      ---
             BOUNDARIES = 24009555968.0000            BOUNDARIES =      822695.3750
          CONSTANT HEAD =           0.0000         CONSTANT HEAD =           0.0000
            ZONE CHANGE =  1256572672.0000           ZONE CHANGE =           0.0000
       ZONE CHG TIP/TOE =    10313589.0000      ZONE CHG TIP/TOE =          74.4207
            ZONE MIXING =           0.0000           ZONE MIXING =           0.0000

               TOTAL IN = 25276442624.0000              TOTAL IN =      822769.8125

             OUT:                                     OUT:
             ----                                     ----
             BOUNDARIES =           0.0000            BOUNDARIES =           0.0000
          CONSTANT HEAD = 17471680512.0000         CONSTANT HEAD =      826236.3750
            ZONE CHANGE = 14726821888.0000           ZONE CHANGE =           0.0000
       ZONE CHG TIP/TOE =     7611348.5000      ZONE CHG TIP/TOE =          62.8126
            ZONE MIXING =           0.0000           ZONE MIXING =           0.0000

              TOTAL OUT = 32206112768.0000             TOTAL OUT =      826299.1875

               IN - OUT = -6929670144.0000              IN - OUT =       -3529.3750

    PERCENT DISCREPANCY =         -24.11     PERCENT DISCREPANCY =          -0.43



                      VOLUMETRIC SWI ZONE BUDGET FOR ENTIRE MODEL
                     AT END OF TIME STEP   80 IN STRESS PERIOD   1
                                      ZONE     2
  -----------------------------------------------------------------------------------

        CUMULATIVE VOLUMES      L**3       RATES FOR THIS TIME STEP      L**3/T
        ------------------                 ------------------------

              IN:                                      IN:
              ---                                      ---
             BOUNDARIES =    29594638.0000            BOUNDARIES =           0.0000
          CONSTANT HEAD =   111293432.0000         CONSTANT HEAD =        4859.5747
            ZONE CHANGE = 14726821888.0000           ZONE CHANGE =           0.0000
       ZONE CHG TIP/TOE =  1484815104.0000      ZONE CHG TIP/TOE =          62.8126
            ZONE MIXING =           0.0000           ZONE MIXING =           0.0000

               TOTAL IN = 16352525312.0000              TOTAL IN =        4922.3872

             OUT:                                     OUT:
             ----                                     ----
             BOUNDARIES =           0.0000            BOUNDARIES =           0.0000
          CONSTANT HEAD =  6678772224.0000         CONSTANT HEAD =        1318.5975
            ZONE CHANGE =  2733776384.0000           ZONE CHANGE =           0.0000
       ZONE CHG TIP/TOE =    10313589.0000      ZONE CHG TIP/TOE =          74.4207
            ZONE MIXING =           0.0000           ZONE MIXING =           0.0000

              TOTAL OUT =  9422862336.0000             TOTAL OUT =        1393.0182

               IN - OUT =  6929662976.0000              IN - OUT =        3529.3691

    PERCENT DISCREPANCY =          53.77     PERCENT DISCREPANCY =         111.77


 HEAD WILL BE SAVED ON UNIT   51 AT END OF TIME STEP   80, STRESS PERIOD    1
1
  VOLUMETRIC BUDGET FOR ENTIRE MODEL AT END OF TIME STEP   80, STRESS PERIOD   1
  ------------------------------------------------------------------------------

     CUMULATIVE VOLUMES      L**3       RATES FOR THIS TIME STEP      L**3/T
     ------------------                 ------------------------

           IN:                                      IN:
           ---                                      ---
             STORAGE =           0.0000               STORAGE =           0.0000
       CONSTANT HEAD =  1257220480.0000         CONSTANT HEAD =         129.9359
          SWIADDTOCH =105691209728.0000            SWIADDTOCH =     5635086.0000
            RECHARGE = 24039151616.0000              RECHARGE =      822695.3750

            TOTAL IN =130987581440.0000              TOTAL IN =     6457911.5000

          OUT:                                     OUT:
          ----                                     ----
             STORAGE =           0.0000               STORAGE =           0.0000
       CONSTANT HEAD =129690804224.0000         CONSTANT HEAD =     6452452.5000
          SWIADDTOCH =  1296812928.0000            SWIADDTOCH =        5459.1147
            RECHARGE =           0.0000              RECHARGE =           0.0000

           TOTAL OUT =130987614208.0000             TOTAL OUT =     6457911.5000

            IN - OUT =      -32768.0000              IN - OUT =           0.0000

 PERCENT DISCREPANCY =          -0.00     PERCENT DISCREPANCY =           0.00






         TIME SUMMARY AT END OF TIME STEP   80 IN STRESS PERIOD    1
                    SECONDS     MINUTES      HOURS       DAYS        YEARS
                    -----------------------------------------------------------
   TIME STEP LENGTH 3.15576E+07 5.25960E+05  8766.0      365.25      1.0000    
 STRESS PERIOD TIME 2.52461E+09 4.20768E+07 7.01280E+05  29220.      80.000    
         TOTAL TIME 2.52461E+09 4.20768E+07 7.01280E+05  29220.      80.000    
1
 
 SOLVING FOR HEAD 

 NO OUTPUT CONTROL FOR STRESS PERIOD    1   TIME STEP   81
 SOLVING FOR ZETA FOR LAYER     1 ZONE     2

    5932 UPPER PART EQS.      5934 LOWER PART EQS.    BAND WIDTH + 1 =  116
 INSUFFICIENT MEMORY FOR DE4 SOLVER:
 MXBW MUST BE AT LEAST  116
 
 SOLVING FOR HEAD 

 NO OUTPUT CONTROL FOR STRESS PERIOD    1   TIME STEP   82
 SOLVING FOR ZETA FOR LAYER     1 ZONE     2

    5948 UPPER PART EQS.      5938 LOWER PART EQS.    BAND WIDTH + 1 =  110
 INSUFFICIENT MEMORY FOR DE4 SOLVER:
 MXBW MUST BE AT LEAST  110
 
 SOLVING FOR HEAD 

 NO OUTPUT CONTROL FOR STRESS PERIOD    1   TIME STEP   83
 SOLVING FOR ZETA FOR LAYER     1 ZONE     2

    5944 UPPER PART EQS.      5955 LOWER PART EQS.    BAND WIDTH + 1 =  116
 INSUFFICIENT MEMORY FOR DE4 SOLVER:
 MXBW MUST BE AT LEAST  116
 
 SOLVING FOR HEAD 

 NO OUTPUT CONTROL FOR STRESS PERIOD    1   TIME STEP   84
 SOLVING FOR ZETA FOR LAYER     1 ZONE     2

    5962 UPPER PART EQS.      5945 LOWER PART EQS.    BAND WIDTH + 1 =  110
 INSUFFICIENT MEMORY FOR DE4 SOLVER:
 MXBW MUST BE AT LEAST  110
 
 SOLVING FOR HEAD 

 NO OUTPUT CONTROL FOR STRESS PERIOD    1   TIME STEP   85
 SOLVING FOR ZETA FOR LAYER     1 ZONE     2

    5953 UPPER PART EQS.      5967 LOWER PART EQS.    BAND WIDTH + 1 =  114
 INSUFFICIENT MEMORY FOR DE4 SOLVER:
 MXBW MUST BE AT LEAST  114
 
 SOLVING FOR HEAD 

 NO OUTPUT CONTROL FOR STRESS PERIOD    1   TIME STEP   86
 SOLVING FOR ZETA FOR LAYER     1 ZONE     2

    5972 UPPER PART EQS.      5954 LOWER PART EQS.    BAND WIDTH + 1 =  106
 INSUFFICIENT MEMORY FOR DE4 SOLVER:
 MXBW MUST BE AT LEAST  106
 
 SOLVING FOR HEAD 

 NO OUTPUT CONTROL FOR STRESS PERIOD    1   TIME STEP   87
 SOLVING FOR ZETA FOR LAYER     1 ZONE     2

    5961 UPPER PART EQS.      5973 LOWER PART EQS.    BAND WIDTH + 1 =  109
 INSUFFICIENT MEMORY FOR DE4 SOLVER:
 MXBW MUST BE AT LEAST  109
 
 SOLVING FOR HEAD 

 NO OUTPUT CONTROL FOR STRESS PERIOD    1   TIME STEP   88
 SOLVING FOR ZETA FOR LAYER     1 ZONE     2

    5976 UPPER PART EQS.      5963 LOWER PART EQS.    BAND WIDTH + 1 =  100
 STRESS PERIOD=  1 TIMESTEP= 88 LAYER=  1 ZONE=  2 ACTIVE CELLS=11939 NUMBER OF EQUATIONS=   11939
 
 SOLVING FOR HEAD 

 NO OUTPUT CONTROL FOR STRESS PERIOD    1   TIME STEP   89
 SOLVING FOR ZETA FOR LAYER     1 ZONE     2

    5602 UPPER PART EQS.      5609 LOWER PART EQS.    BAND WIDTH + 1 =  100
 STRESS PERIOD=  1 TIMESTEP= 89 LAYER=  1 ZONE=  2 ACTIVE CELLS=11211 NUMBER OF EQUATIONS=   11211
 
 SOLVING FOR HEAD 

 NO OUTPUT CONTROL FOR STRESS PERIOD    1   TIME STEP   90
 SOLVING FOR ZETA FOR LAYER     1 ZONE     2

    5837 UPPER PART EQS.      5834 LOWER PART EQS.    BAND WIDTH + 1 =   99
 STRESS PERIOD=  1 TIMESTEP= 90 LAYER=  1 ZONE=  2 ACTIVE CELLS=11671 NUMBER OF EQUATIONS=   11671
 
 SOLVING FOR HEAD 

 NO OUTPUT CONTROL FOR STRESS PERIOD    1   TIME STEP   91
 SOLVING FOR ZETA FOR LAYER     1 ZONE     2

    5756 UPPER PART EQS.      5760 LOWER PART EQS.    BAND WIDTH + 1 =  103
 STRESS PERIOD=  1 TIMESTEP= 91 LAYER=  1 ZONE=  2 ACTIVE CELLS=11516 NUMBER OF EQUATIONS=   11516
 
 SOLVING FOR HEAD 

 NO OUTPUT CONTROL FOR STRESS PERIOD    1   TIME STEP   92
 SOLVING FOR ZETA FOR LAYER     1 ZONE     2

    5860 UPPER PART EQS.      5860 LOWER PART EQS.    BAND WIDTH + 1 =  103
 STRESS PERIOD=  1 TIMESTEP= 92 LAYER=  1 ZONE=  2 ACTIVE CELLS=11720 NUMBER OF EQUATIONS=   11720
 
 SOLVING FOR HEAD 

 NO OUTPUT CONTROL FOR STRESS PERIOD    1   TIME STEP   93
 SOLVING FOR ZETA FOR LAYER     1 ZONE     2

    5763 UPPER PART EQS.      5769 LOWER PART EQS.    BAND WIDTH + 1 =  102
 STRESS PERIOD=  1 TIMESTEP= 93 LAYER=  1 ZONE=  2 ACTIVE CELLS=11532 NUMBER OF EQUATIONS=   11532
 
 SOLVING FOR HEAD 

 NO OUTPUT CONTROL FOR STRESS PERIOD    1   TIME STEP   94
 SOLVING FOR ZETA FOR LAYER     1 ZONE     2

    5878 UPPER PART EQS.      5879 LOWER PART EQS.    BAND WIDTH + 1 =  100
 STRESS PERIOD=  1 TIMESTEP= 94 LAYER=  1 ZONE=  2 ACTIVE CELLS=11757 NUMBER OF EQUATIONS=   11757
 
 SOLVING FOR HEAD 

 NO OUTPUT CONTROL FOR STRESS PERIOD    1   TIME STEP   95
 SOLVING FOR ZETA FOR LAYER     1 ZONE     2

    5795 UPPER PART EQS.      5791 LOWER PART EQS.    BAND WIDTH + 1 =  101
 STRESS PERIOD=  1 TIMESTEP= 95 LAYER=  1 ZONE=  2 ACTIVE CELLS=11586 NUMBER OF EQUATIONS=   11586
 
 SOLVING FOR HEAD 

 NO OUTPUT CONTROL FOR STRESS PERIOD    1   TIME STEP   96
 SOLVING FOR ZETA FOR LAYER     1 ZONE     2

    5885 UPPER PART EQS.      5895 LOWER PART EQS.    BAND WIDTH + 1 =  114
 INSUFFICIENT MEMORY FOR DE4 SOLVER:
 MXBW MUST BE AT LEAST  114
 
 SOLVING FOR HEAD 

 NO OUTPUT CONTROL FOR STRESS PERIOD    1   TIME STEP   97
 SOLVING FOR ZETA FOR LAYER     1 ZONE     2

    5947 UPPER PART EQS.      5919 LOWER PART EQS.    BAND WIDTH + 1 =  119
 INSUFFICIENT MEMORY FOR DE4 SOLVER:
 MXBW MUST BE AT LEAST  119
 
 SOLVING FOR HEAD 

 NO OUTPUT CONTROL FOR STRESS PERIOD    1   TIME STEP   98
 SOLVING FOR ZETA FOR LAYER     1 ZONE     2

    5974 UPPER PART EQS.      5975 LOWER PART EQS.    BAND WIDTH + 1 =  108
 INSUFFICIENT MEMORY FOR DE4 SOLVER:
 MXBW MUST BE AT LEAST  108
 
 SOLVING FOR HEAD 

 NO OUTPUT CONTROL FOR STRESS PERIOD    1   TIME STEP   99
 SOLVING FOR ZETA FOR LAYER     1 ZONE     2

    5997 UPPER PART EQS.      5978 LOWER PART EQS.    BAND WIDTH + 1 =  104
 STRESS PERIOD=  1 TIMESTEP= 99 LAYER=  1 ZONE=  2 ACTIVE CELLS=11975 NUMBER OF EQUATIONS=   11975
 
 SOLVING FOR HEAD 

 OUTPUT CONTROL FOR STRESS PERIOD    1   TIME STEP  100
    SAVE HEAD FOR ALL LAYERS
    PRINT BUDGET
 SOLVING FOR ZETA FOR LAYER     1 ZONE     2

    5761 UPPER PART EQS.      5788 LOWER PART EQS.    BAND WIDTH + 1 =  102
 STRESS PERIOD=  1 TIMESTEP=100 LAYER=  1 ZONE=  2 ACTIVE CELLS=11549 NUMBER OF EQUATIONS=   11549
 UBUDSV SAVING "      ZETASRF  1" ON UNIT 55 AT TIME STEP100, STRESS PERIOD    1


                      VOLUMETRIC SWI ZONE BUDGET FOR ENTIRE MODEL
                     AT END OF TIME STEP  100 IN STRESS PERIOD   1
                                      ZONE     1
  -----------------------------------------------------------------------------------

        CUMULATIVE VOLUMES      L**3       RATES FOR THIS TIME STEP      L**3/T
        ------------------                 ------------------------

              IN:                                      IN:
              ---                                      ---
             BOUNDARIES = 30019330048.0000            BOUNDARIES =      822695.3750
          CONSTANT HEAD =           0.0000         CONSTANT HEAD =           0.0000
            ZONE CHANGE =  1422712320.0000           ZONE CHANGE =       10691.0283
       ZONE CHG TIP/TOE =    11398142.0000      ZONE CHG TIP/TOE =         357.5761
            ZONE MIXING =           0.0000           ZONE MIXING =           0.0000

               TOTAL IN = 31453440000.0000              TOTAL IN =      833743.9375

             OUT:                                     OUT:
             ----                                     ----
             BOUNDARIES =           0.0000            BOUNDARIES =           0.0000
          CONSTANT HEAD = 23105466368.0000         CONSTANT HEAD =      644711.1875
            ZONE CHANGE = 16151855104.0000           ZONE CHANGE =      428805.8125
       ZONE CHG TIP/TOE =     8461022.0000      ZONE CHG TIP/TOE =         248.7947
            ZONE MIXING =           0.0000           ZONE MIXING =           0.0000

              TOTAL OUT = 39265783808.0000             TOTAL OUT =     1073765.7500

               IN - OUT = -7812343808.0000              IN - OUT =     -240021.8125

    PERCENT DISCREPANCY =         -22.09     PERCENT DISCREPANCY =         -25.17



                      VOLUMETRIC SWI ZONE BUDGET FOR ENTIRE MODEL
                     AT END OF TIME STEP  100 IN STRESS PERIOD   1
                                      ZONE     2
  -----------------------------------------------------------------------------------

        CUMULATIVE VOLUMES      L**3       RATES FOR THIS TIME STEP      L**3/T
        ------------------                 ------------------------

              IN:                                      IN:
              ---                                      ---
             BOUNDARIES =    29594638.0000            BOUNDARIES =           0.0000
          CONSTANT HEAD =   146832768.0000         CONSTANT HEAD =        4946.9785
            ZONE CHANGE = 16151855104.0000           ZONE CHANGE =      428805.8125
       ZONE CHG TIP/TOE =  1560676480.0000      ZONE CHG TIP/TOE =        5474.8809
            ZONE MIXING =           0.0000           ZONE MIXING =           0.0000

               TOTAL IN = 17888958464.0000              TOTAL IN =      439227.6562

             OUT:                                     OUT:
             ----                                     ----
             BOUNDARIES =           0.0000            BOUNDARIES =           0.0000
          CONSTANT HEAD =  7090318336.0000         CONSTANT HEAD =      182931.1562
            ZONE CHANGE =  2974927616.0000           ZONE CHANGE =       15917.1143
       ZONE CHG TIP/TOE =    11398142.0000      ZONE CHG TIP/TOE =         357.5761
            ZONE MIXING =           0.0000           ZONE MIXING =           0.0000

              TOTAL OUT = 10076644352.0000             TOTAL OUT =      199205.8438

               IN - OUT =  7812314112.0000              IN - OUT =      240021.8125

    PERCENT DISCREPANCY =          55.87     PERCENT DISCREPANCY =          75.19


 HEAD WILL BE SAVED ON UNIT   51 AT END OF TIME STEP  100, STRESS PERIOD    1
1
  VOLUMETRIC BUDGET FOR ENTIRE MODEL AT END OF TIME STEP  100, STRESS PERIOD   1
  ------------------------------------------------------------------------------

     CUMULATIVE VOLUMES      L**3       RATES FOR THIS TIME STEP      L**3/T
     ------------------                 ------------------------

           IN:                                      IN:
           ---                                      ---
             STORAGE =           0.0000               STORAGE =           0.0000
       CONSTANT HEAD =  1258034432.0000         CONSTANT HEAD =          85.3440
          SWIADDTOCH =147208290304.0000            SWIADDTOCH =     5769110.5000
            RECHARGE = 30048925696.0000              RECHARGE =      822695.3750

            TOTAL IN =178515247104.0000              TOTAL IN =     6591891.5000

          OUT:                                     OUT:
          ----                                     ----
             STORAGE =           0.0000               STORAGE =           0.0000
       CONSTANT HEAD =177181671424.0000         CONSTANT HEAD =     6587455.5000
          SWIADDTOCH =  1333641984.0000            SWIADDTOCH =        4435.8374
[...]

               TOTAL IN = 30665920512.0000              TOTAL IN =       55164.0234

             OUT:                                     OUT:
             ----                                     ----
             BOUNDARIES =           0.0000            BOUNDARIES =           0.0000
          CONSTANT HEAD =  8371682304.0000         CONSTANT HEAD =           0.0000
            ZONE CHANGE =  4308870144.0000           ZONE CHANGE =        1155.4153
       ZONE CHG TIP/TOE =    17884660.0000      ZONE CHG TIP/TOE =          10.1838
            ZONE MIXING =           0.0000           ZONE MIXING =           0.0000

              TOTAL OUT = 12698436608.0000             TOTAL OUT =        1165.5990

               IN - OUT = 17967484928.0000              IN - OUT =       53998.4258

    PERCENT DISCREPANCY =          82.87     PERCENT DISCREPANCY =         191.72


 HEAD WILL BE SAVED ON UNIT   51 AT END OF TIME STEP  380, STRESS PERIOD    1
1
  VOLUMETRIC BUDGET FOR ENTIRE MODEL AT END OF TIME STEP  380, STRESS PERIOD   1
  ------------------------------------------------------------------------------

     CUMULATIVE VOLUMES      L**3       RATES FOR THIS TIME STEP      L**3/T
     ------------------                 ------------------------

           IN:                                      IN:
           ---                                      ---
             STORAGE =           0.0000               STORAGE =           0.0000
       CONSTANT HEAD =  1259017088.0000         CONSTANT HEAD =           0.0000
          SWIADDTOCH =526028472320.0000            SWIADDTOCH =     2757588.5000
            RECHARGE =114186305536.0000              RECHARGE =      822695.3750

            TOTAL IN =641473773568.0000              TOTAL IN =     3580284.0000

          OUT:                                     OUT:
          ----                                     ----
             STORAGE =           0.0000               STORAGE =           0.0000
       CONSTANT HEAD =639922733056.0000         CONSTANT HEAD =     3579458.2500
          SWIADDTOCH =  1550094464.0000            SWIADDTOCH =         825.5638
            RECHARGE =           0.0000              RECHARGE =           0.0000

           TOTAL OUT =641472856064.0000             TOTAL OUT =     3580283.7500

            IN - OUT =      917504.0000              IN - OUT =           0.2500

 PERCENT DISCREPANCY =           0.00     PERCENT DISCREPANCY =           0.00






         TIME SUMMARY AT END OF TIME STEP  380 IN STRESS PERIOD    1
                    SECONDS     MINUTES      HOURS       DAYS        YEARS
                    -----------------------------------------------------------
   TIME STEP LENGTH 3.15576E+07 5.25960E+05  8766.0      365.25      1.0000    
 STRESS PERIOD TIME 1.19919E+10 1.99865E+08 3.33108E+06 1.38795E+05  380.00    
         TOTAL TIME 1.19919E+10 1.99865E+08 3.33108E+06 1.38795E+05  380.00    
1
 
 SOLVING FOR HEAD 

 NO OUTPUT CONTROL FOR STRESS PERIOD    1   TIME STEP  381
 SOLVING FOR ZETA FOR LAYER     1 ZONE     2

    6298 UPPER PART EQS.      6291 LOWER PART EQS.    BAND WIDTH + 1 =  101
 STRESS PERIOD=  1 TIMESTEP=381 LAYER=  1 ZONE=  2 ACTIVE CELLS=12589 NUMBER OF EQUATIONS=   12589
 
 SOLVING FOR HEAD 

 NO OUTPUT CONTROL FOR STRESS PERIOD    1   TIME STEP  382
 SOLVING FOR ZETA FOR LAYER     1 ZONE     2

    6299 UPPER PART EQS.      6291 LOWER PART EQS.    BAND WIDTH + 1 =  100
 STRESS PERIOD=  1 TIMESTEP=382 LAYER=  1 ZONE=  2 ACTIVE CELLS=12590 NUMBER OF EQUATIONS=   12590
 
 SOLVING FOR HEAD 

 NO OUTPUT CONTROL FOR STRESS PERIOD    1   TIME STEP  383
 SOLVING FOR ZETA FOR LAYER     1 ZONE     2

    6299 UPPER PART EQS.      6291 LOWER PART EQS.    BAND WIDTH + 1 =  102
 STRESS PERIOD=  1 TIMESTEP=383 LAYER=  1 ZONE=  2 ACTIVE CELLS=12590 NUMBER OF EQUATIONS=   12590
 
 SOLVING FOR HEAD 

 NO OUTPUT CONTROL FOR STRESS PERIOD    1   TIME STEP  384
 SOLVING FOR ZETA FOR LAYER     1 ZONE     2

    6299 UPPER PART EQS.      6292 LOWER PART EQS.    BAND WIDTH + 1 =   99
 STRESS PERIOD=  1 TIMESTEP=384 LAYER=  1 ZONE=  2 ACTIVE CELLS=12591 NUMBER OF EQUATIONS=   12591
 
 SOLVING FOR HEAD 

 NO OUTPUT CONTROL FOR STRESS PERIOD    1   TIME STEP  385
 SOLVING FOR ZETA FOR LAYER     1 ZONE     2

    6300 UPPER PART EQS.      6292 LOWER PART EQS.    BAND WIDTH + 1 =  101
 STRESS PERIOD=  1 TIMESTEP=385 LAYER=  1 ZONE=  2 ACTIVE CELLS=12592 NUMBER OF EQUATIONS=   12592
 
 SOLVING FOR HEAD 

 NO OUTPUT CONTROL FOR STRESS PERIOD    1   TIME STEP  386
 SOLVING FOR ZETA FOR LAYER     1 ZONE     2

    6303 UPPER PART EQS.      6293 LOWER PART EQS.    BAND WIDTH + 1 =  100
 STRESS PERIOD=  1 TIMESTEP=386 LAYER=  1 ZONE=  2 ACTIVE CELLS=12596 NUMBER OF EQUATIONS=   12596
 
 SOLVING FOR HEAD 

 NO OUTPUT CONTROL FOR STRESS PERIOD    1   TIME STEP  387
 SOLVING FOR ZETA FOR LAYER     1 ZONE     2

    6304 UPPER PART EQS.      6294 LOWER PART EQS.    BAND WIDTH + 1 =  102
 STRESS PERIOD=  1 TIMESTEP=387 LAYER=  1 ZONE=  2 ACTIVE CELLS=12598 NUMBER OF EQUATIONS=   12598
 
 SOLVING FOR HEAD 

 NO OUTPUT CONTROL FOR STRESS PERIOD    1   TIME STEP  388
 SOLVING FOR ZETA FOR LAYER     1 ZONE     2

    6303 UPPER PART EQS.      6297 LOWER PART EQS.    BAND WIDTH + 1 =   99
 STRESS PERIOD=  1 TIMESTEP=388 LAYER=  1 ZONE=  2 ACTIVE CELLS=12600 NUMBER OF EQUATIONS=   12600
 
 SOLVING FOR HEAD 

 NO OUTPUT CONTROL FOR STRESS PERIOD    1   TIME STEP  389
 SOLVING FOR ZETA FOR LAYER     1 ZONE     2

    6306 UPPER PART EQS.      6297 LOWER PART EQS.    BAND WIDTH + 1 =  100
 STRESS PERIOD=  1 TIMESTEP=389 LAYER=  1 ZONE=  2 ACTIVE CELLS=12603 NUMBER OF EQUATIONS=   12603
 
 SOLVING FOR HEAD 

 NO OUTPUT CONTROL FOR STRESS PERIOD    1   TIME STEP  390
 SOLVING FOR ZETA FOR LAYER     1 ZONE     2

    6307 UPPER PART EQS.      6298 LOWER PART EQS.    BAND WIDTH + 1 =   99
 STRESS PERIOD=  1 TIMESTEP=390 LAYER=  1 ZONE=  2 ACTIVE CELLS=12605 NUMBER OF EQUATIONS=   12605
 
 SOLVING FOR HEAD 

 NO OUTPUT CONTROL FOR STRESS PERIOD    1   TIME STEP  391
 SOLVING FOR ZETA FOR LAYER     1 ZONE     2

    6308 UPPER PART EQS.      6298 LOWER PART EQS.    BAND WIDTH + 1 =  101
 STRESS PERIOD=  1 TIMESTEP=391 LAYER=  1 ZONE=  2 ACTIVE CELLS=12606 NUMBER OF EQUATIONS=   12606
 
 SOLVING FOR HEAD 

 NO OUTPUT CONTROL FOR STRESS PERIOD    1   TIME STEP  392
 SOLVING FOR ZETA FOR LAYER     1 ZONE     2

    6307 UPPER PART EQS.      6299 LOWER PART EQS.    BAND WIDTH + 1 =   99
 STRESS PERIOD=  1 TIMESTEP=392 LAYER=  1 ZONE=  2 ACTIVE CELLS=12606 NUMBER OF EQUATIONS=   12606
 
 SOLVING FOR HEAD 

 NO OUTPUT CONTROL FOR STRESS PERIOD    1   TIME STEP  393
 SOLVING FOR ZETA FOR LAYER     1 ZONE     2

    6309 UPPER PART EQS.      6299 LOWER PART EQS.    BAND WIDTH + 1 =  101
 STRESS PERIOD=  1 TIMESTEP=393 LAYER=  1 ZONE=  2 ACTIVE CELLS=12608 NUMBER OF EQUATIONS=   12608
 
 SOLVING FOR HEAD 

 NO OUTPUT CONTROL FOR STRESS PERIOD    1   TIME STEP  394
 SOLVING FOR ZETA FOR LAYER     1 ZONE     2

    6308 UPPER PART EQS.      6299 LOWER PART EQS.    BAND WIDTH + 1 =   99
 STRESS PERIOD=  1 TIMESTEP=394 LAYER=  1 ZONE=  2 ACTIVE CELLS=12607 NUMBER OF EQUATIONS=   12607
 
 SOLVING FOR HEAD 

 NO OUTPUT CONTROL FOR STRESS PERIOD    1   TIME STEP  395
 SOLVING FOR ZETA FOR LAYER     1 ZONE     2

    6310 UPPER PART EQS.      6300 LOWER PART EQS.    BAND WIDTH + 1 =  101
 STRESS PERIOD=  1 TIMESTEP=395 LAYER=  1 ZONE=  2 ACTIVE CELLS=12610 NUMBER OF EQUATIONS=   12610
 
 SOLVING FOR HEAD 

 NO OUTPUT CONTROL FOR STRESS PERIOD    1   TIME STEP  396
 SOLVING FOR ZETA FOR LAYER     1 ZONE     2

    6307 UPPER PART EQS.      6298 LOWER PART EQS.    BAND WIDTH + 1 =  100
 STRESS PERIOD=  1 TIMESTEP=396 LAYER=  1 ZONE=  2 ACTIVE CELLS=12605 NUMBER OF EQUATIONS=   12605
 
 SOLVING FOR HEAD 

 NO OUTPUT CONTROL FOR STRESS PERIOD    1   TIME STEP  397
 SOLVING FOR ZETA FOR LAYER     1 ZONE     2

    6313 UPPER PART EQS.      6302 LOWER PART EQS.    BAND WIDTH + 1 =  100
 STRESS PERIOD=  1 TIMESTEP=397 LAYER=  1 ZONE=  2 ACTIVE CELLS=12615 NUMBER OF EQUATIONS=   12615
 
 SOLVING FOR HEAD 

 NO OUTPUT CONTROL FOR STRESS PERIOD    1   TIME STEP  398
 SOLVING FOR ZETA FOR LAYER     1 ZONE     2

    6307 UPPER PART EQS.      6301 LOWER PART EQS.    BAND WIDTH + 1 =   99
 STRESS PERIOD=  1 TIMESTEP=398 LAYER=  1 ZONE=  2 ACTIVE CELLS=12608 NUMBER OF EQUATIONS=   12608
 
 SOLVING FOR HEAD 

 NO OUTPUT CONTROL FOR STRESS PERIOD    1   TIME STEP  399
 SOLVING FOR ZETA FOR LAYER     1 ZONE     2

    6312 UPPER PART EQS.      6303 LOWER PART EQS.    BAND WIDTH + 1 =  101
 STRESS PERIOD=  1 TIMESTEP=399 LAYER=  1 ZONE=  2 ACTIVE CELLS=12615 NUMBER OF EQUATIONS=   12615
 
 SOLVING FOR HEAD 

 OUTPUT CONTROL FOR STRESS PERIOD    1   TIME STEP  400
    SAVE HEAD FOR ALL LAYERS
    PRINT BUDGET
 SOLVING FOR ZETA FOR LAYER     1 ZONE     2

    6309 UPPER PART EQS.      6301 LOWER PART EQS.    BAND WIDTH + 1 =  100
 STRESS PERIOD=  1 TIMESTEP=400 LAYER=  1 ZONE=  2 ACTIVE CELLS=12610 NUMBER OF EQUATIONS=   12610
 UBUDSV SAVING "      ZETASRF  1" ON UNIT 55 AT TIME STEP400, STRESS PERIOD    1


                      VOLUMETRIC SWI ZONE BUDGET FOR ENTIRE MODEL
                     AT END OF TIME STEP  400 IN STRESS PERIOD   1
                                      ZONE     1
  -----------------------------------------------------------------------------------

        CUMULATIVE VOLUMES      L**3       RATES FOR THIS TIME STEP      L**3/T
        ------------------                 ------------------------

              IN:                                      IN:
              ---                                      ---
             BOUNDARIES =120166522880.0000            BOUNDARIES =      822695.3750
          CONSTANT HEAD =           0.0000         CONSTANT HEAD =           0.0000
            ZONE CHANGE =  2476358656.0000           ZONE CHANGE =         327.2691
       ZONE CHG TIP/TOE =    17944932.0000      ZONE CHG TIP/TOE =          10.7832
            ZONE MIXING =           0.0000           ZONE MIXING =           0.0000

               TOTAL IN =122660831232.0000              TOTAL IN =      823033.4375

             OUT:                                     OUT:
             ----                                     ----
             BOUNDARIES =           0.0000            BOUNDARIES =           0.0000
          CONSTANT HEAD =112435904512.0000         CONSTANT HEAD =      824607.6875
            ZONE CHANGE = 28560373760.0000           ZONE CHANGE =       49176.4922
       ZONE CHG TIP/TOE =    14321857.0000      ZONE CHG TIP/TOE =          11.4280
            ZONE MIXING =           0.0000           ZONE MIXING =           0.0000

              TOTAL OUT =141010599936.0000             TOTAL OUT =      873795.6250

               IN - OUT =-18349768704.0000              IN - OUT =      -50762.1875

    PERCENT DISCREPANCY =         -13.92     PERCENT DISCREPANCY =          -5.98



                      VOLUMETRIC SWI ZONE BUDGET FOR ENTIRE MODEL
                     AT END OF TIME STEP  400 IN STRESS PERIOD   1
                                      ZONE     2
  -----------------------------------------------------------------------------------

        CUMULATIVE VOLUMES      L**3       RATES FOR THIS TIME STEP      L**3/T
        ------------------                 ------------------------

              IN:                                      IN:
              ---                                      ---
             BOUNDARIES =    29594638.0000            BOUNDARIES =           0.0000
          CONSTANT HEAD =   611750720.0000         CONSTANT HEAD =        1912.3029
            ZONE CHANGE = 28560373760.0000           ZONE CHANGE =       49176.4922
       ZONE CHG TIP/TOE =  1854573696.0000      ZONE CHG TIP/TOE =         473.2379
            ZONE MIXING =           0.0000           ZONE MIXING =           0.0000

               TOTAL IN = 31056293888.0000              TOTAL IN =       51562.0352

             OUT:                                     OUT:
             ----                                     ----
             BOUNDARIES =           0.0000            BOUNDARIES =           0.0000
          CONSTANT HEAD =  8371682304.0000         CONSTANT HEAD =           0.0000
            ZONE CHANGE =  4316608512.0000           ZONE CHANGE =         789.0790
       ZONE CHG TIP/TOE =    17944932.0000      ZONE CHG TIP/TOE =          10.7832
            ZONE MIXING =           0.0000           ZONE MIXING =           0.0000

              TOTAL OUT = 12706235392.0000             TOTAL OUT =         799.8623

               IN - OUT = 18350059520.0000              IN - OUT =       50762.1719

    PERCENT DISCREPANCY =          83.86     PERCENT DISCREPANCY =         193.89


 HEAD WILL BE SAVED ON UNIT   51 AT END OF TIME STEP  400, STRESS PERIOD    1
1
  VOLUMETRIC BUDGET FOR ENTIRE MODEL AT END OF TIME STEP  400, STRESS PERIOD   1
  ------------------------------------------------------------------------------

     CUMULATIVE VOLUMES      L**3       RATES FOR THIS TIME STEP      L**3/T
     ------------------                 ------------------------

           IN:                                      IN:
           ---                                      ---
             STORAGE =           0.0000               STORAGE =           0.0000
       CONSTANT HEAD =  1259017088.0000         CONSTANT HEAD =           0.0000
          SWIADDTOCH =545938440192.0000            SWIADDTOCH =     2697033.7500
            RECHARGE =120196120576.0000              RECHARGE =      822695.3750

            TOTAL IN =667393589248.0000              TOTAL IN =     3519729.0000

          OUT:                                     OUT:
          ----                                     ----
             STORAGE =           0.0000               STORAGE =           0.0000
       CONSTANT HEAD =665836257280.0000         CONSTANT HEAD =     3518876.5000
          SWIADDTOCH =  1556487424.0000            SWIADDTOCH =         852.6808
            RECHARGE =           0.0000              RECHARGE =           0.0000

           TOTAL OUT =667392737280.0000             TOTAL OUT =     3519729.2500

            IN - OUT =      851968.0000              IN - OUT =          -0.2500

 PERCENT DISCREPANCY =           0.00     PERCENT DISCREPANCY =          -0.00






         TIME SUMMARY AT END OF TIME STEP  400 IN STRESS PERIOD    1
                    SECONDS     MINUTES      HOURS       DAYS        YEARS
                    -----------------------------------------------------------
   TIME STEP LENGTH 3.15576E+07 5.25960E+05  8766.0      365.25      1.0000    
 STRESS PERIOD TIME 1.26230E+10 2.10384E+08 3.50640E+06 1.46100E+05  400.00    
         TOTAL TIME 1.26230E+10 2.10384E+08 3.50640E+06 1.46100E+05  400.00    
1

 HEAD AND DRAWDOWN OBSERVATIONS
 OBSERVATION       OBSERVED           SIMULATED
   NAME              VALUE              VALUE             DIFFERENCE
 --------------------------------------------------------------------
 Obs_0           5.5000000000        8.3480539322       -2.8480539322    
 Obs_1          0.20000000298       0.59180587530      -0.39180588722    
 Obs_2          0.40000000596       0.68788784742      -0.28788784146    
 Obs_3          0.30000001192       0.65517783165      -0.35517781973    
 Obs_4          0.60000002384       0.68017518520      -8.01751613617E-02
 Obs_5           2.2999999523        1.0589303970        1.2410695553    
 Obs_6           2.5999999046       0.96071243286        1.6392874718    
 Obs_7           3.5000000000        2.7656254768       0.73437452316    
 Obs_8           1.2000000477       0.98219698668       0.21780306101    
 Obs_9           3.5999999046        4.7577223778       -1.1577224731    
 Obs_10          1.5000000000        1.1634188890       0.33658111095    
 Obs_11          1.8999999762        2.3967673779      -0.49676740170    
 Obs_12          1.2999999523        5.1618819237       -3.8618819714    
 Obs_13         0.89999997616        2.3904335499       -1.4904335737    
 Obs_14          44.700000763        8.9656686783        35.734333038    
 Obs_15          2.5999999046        2.3601262569       0.23987364769    
 Obs_16          1.7000000477        2.3298232555      -0.62982320786    
 Obs_17          3.0000000000        9.2723245621       -6.2723245621    
 Obs_18          1.7999999523        2.8167824745       -1.0167825222    
 Obs_19          5.9000000954        17.752662659       -11.852663040    
 Obs_20          19.200000763        10.565219879        8.6347808838    
 Obs_21          8.0000000000        20.739927292       -12.739927292    
 Obs_22          8.1999998093        12.821756363       -4.6217565536    
 Obs_23          5.7500000000        11.194234848       -5.4442348480    
 Obs_24          34.200000763        20.806720734        13.393280029    
 Obs_25          3.2000000477        10.300773621       -7.1007738113    
 Obs_26          16.500000000        22.873508453       -6.3735084534    
 Obs_27          25.399999619        15.050633430        10.349366188    
 Obs_28          1.7999999523        9.8466959000       -8.0466957092    
 Obs_29          8.8000001907        9.9889440536       -1.1889438629    
 Obs_30         0.85000002384        7.5239286423       -6.6739287376    
 Obs_31         0.89999997616        7.1137290001       -6.2137289047    
 Obs_32         0.60000002384       0.10000000149       0.50000000000    
 Obs_33          20.299999237        15.791641235        4.5083580017    
 Obs_34          1.7999999523        7.8973660469       -6.0973663330    
 Obs_35          1.9333000183        7.1234092712       -5.1901092529    
 Obs_36         0.30000001192        4.4629497528       -4.1629495621    
 Obs_37         0.50000000000       0.52640426159      -2.64042615891E-02
 Obs_38          1.0000000000        3.9391806126       -2.9391806126    
 Obs_39          62.500000000        24.434003830        38.065994263    
 Obs_40          15.800000191        8.6024789810        7.1975212097    
 Obs_41          1.2000000477        14.022252083       -12.822252274    
 Obs_42          7.3000001907        15.781660080       -8.4816598892    
 Obs_43          7.3000001907        17.581190109       -10.281189919    
 Obs_44          9.8000001907        19.076833725       -9.2768335342    
 Obs_45          16.466699600        20.775043488       -4.3083438873    
 Obs_46          1.2000000477        9.0818548203       -7.8818550110    
 Obs_47          3.0000000000        8.6809806824       -5.6809806824    
 Obs_48          6.6500000954        11.594404221       -4.9444041252    
 Obs_49          2.7000000477        10.097075462       -7.3970756531    
 Obs_50          6.0999999046        3.9876797199        2.1123201847    
 Obs_51         0.10000000149       0.10000000149        0.0000000000    
 Obs_52          8.1000003815        9.0577526093      -0.95775222778    
 Obs_53          8.1999998093        9.0022192001      -0.80221939087    
 Obs_54          4.3000001907        11.535820961       -7.2358207703    
 Obs_55          5.5666999817        10.752457619       -5.1857576370    
 Obs_56          5.5000000000        12.372804642       -6.8728046417    
 Obs_57          7.3000001907        6.9139242172       0.38607597351    
 Obs_58          6.0000000000        4.8504881859        1.1495118141    
 Obs_59          2.7000000477       0.94186741114        1.7581326962    
 Obs_60          5.3000001907       0.95694756508        4.3430528641    
 Obs_61          3.0999999046        2.1732740402       0.92672586441    
 Obs_62          3.0000000000        1.2784448862        1.7215551138    
 Obs_63          5.6999998093       0.78921484947        4.9107847214    

 HEAD/DRAWDOWN SUM OF SQUARED DIFFERENCE:    4.72069E+03

 Run end date and time (yyyy/mm/dd hh:mm:ss): 2019/08/01 12:38:05
 Elapsed run time: 14.321 Seconds

