                                  MODFLOW-2005     
      U.S. GEOLOGICAL SURVEY MODULAR FINITE-DIFFERENCE GROUND-WATER FLOW MODEL
                            VERSION 1.12.00 2/3/2017

 LIST FILE: modelface.list
                         UNIT    2

 OPENING modelface.dis
 FILE TYPE:DIS   UNIT   11   STATUS:OLD    
 FORMAT:FORMATTED              ACCESS:SEQUENTIAL          

 OPENING modelface.bas
 FILE TYPE:BAS6   UNIT   13   STATUS:OLD    
 FORMAT:FORMATTED              ACCESS:SEQUENTIAL          

 OPENING modelface.lpf
 FILE TYPE:LPF   UNIT   15   STATUS:OLD    
 FORMAT:FORMATTED              ACCESS:SEQUENTIAL          

 OPENING modelface.rch
 FILE TYPE:RCH   UNIT   19   STATUS:OLD    
 FORMAT:FORMATTED              ACCESS:SEQUENTIAL          

 OPENING modelface.oc
 FILE TYPE:OC   UNIT   14   STATUS:OLD    
 FORMAT:FORMATTED              ACCESS:SEQUENTIAL          

 OPENING modelface.pcg
 FILE TYPE:PCG   UNIT   27   STATUS:OLD    
 FORMAT:FORMATTED              ACCESS:SEQUENTIAL          

 OPENING modelface.ghb
 FILE TYPE:GHB   UNIT   23   STATUS:OLD    
 FORMAT:FORMATTED              ACCESS:SEQUENTIAL          

 OPENING modelface.swi2
 FILE TYPE:SWI2   UNIT   29   STATUS:OLD    
 FORMAT:FORMATTED              ACCESS:SEQUENTIAL          

 OPENING modelface.hob
 FILE TYPE:HOB   UNIT   39   STATUS:OLD    
 FORMAT:FORMATTED              ACCESS:SEQUENTIAL          

 OPENING modelface.hds
 FILE TYPE:DATA(BINARY)   UNIT   51   STATUS:REPLACE
 FORMAT:BINARY                 ACCESS:SEQUENTIAL          

 OPENING modelface.zta
 FILE TYPE:DATA(BINARY)   UNIT   55   STATUS:REPLACE
 FORMAT:BINARY                 ACCESS:SEQUENTIAL          

 OPENING modelface.hob.out
 FILE TYPE:DATA   UNIT    7   STATUS:UNKNOWN
 FORMAT:FORMATTED              ACCESS:SEQUENTIAL          

 BAS -- BASIC PACKAGE, VERSION 7, 5/2/2005 INPUT READ FROM UNIT   13
 
 MODFLOW was compiled using mixed precision
 Precision of REAL variables:           6
 Precision of DOUBLE PRECISION variables:          15

 DISCRETIZATION INPUT DATA READ FROM UNIT   11
 # DIS package for  MODFLOW-2005, generated by Flopy.
    1 LAYERS       100 ROWS       200 COLUMNS
    1 STRESS PERIOD(S) IN SIMULATION
 MODEL TIME UNIT IS DAYS
 MODEL LENGTH UNIT IS METERS
  Confining bed flag for each layer:
   0

                     DELR =   169.000    

                     DELC =   165.000    



           TOP ELEVATION OF LAYER 1
 READING ON UNIT   11 WITH FORMAT: (200E15.6)          

   MODEL LAYER BOTTOM EL. =  -1250.00     FOR LAYER   1


 STRESS PERIOD     LENGTH       TIME STEPS     MULTIPLIER FOR DELT    SS FLAG
 ----------------------------------------------------------------------------
        1         146100.0        400                    1.000         SS

 STEADY-STATE SIMULATION



 
 # BAS6 package for  MODFLOW-2005, generated by Flopy.                           
 THE FREE FORMAT OPTION HAS BEEN SELECTED



                     BOUNDARY ARRAY FOR LAYER   1
 READING ON UNIT   13 WITH FORMAT: (200I10)            

 AQUIFER HEAD WILL BE SET TO  -999.99     AT ALL NO-FLOW NODES (IBOUND=0).



                       INITIAL HEAD FOR LAYER   1
 READING ON UNIT   13 WITH FORMAT: (200E15.6)          
 # OC package for  MODFLOW-2005, generated by Flopy.

 OUTPUT CONTROL IS SPECIFIED ONLY AT TIME STEPS FOR WHICH OUTPUT IS DESIRED
 COMPACT CELL-BY-CELL BUDGET FILES WILL BE WRITTEN
 AUXILIARY DATA WILL BE SAVED IN CELL-BY-CELL BUDGET FILES
 HEAD PRINT FORMAT CODE IS   0    DRAWDOWN PRINT FORMAT CODE IS   0
 HEADS WILL BE SAVED ON UNIT   51    DRAWDOWNS WILL BE SAVED ON UNIT    0

 LPF -- LAYER-PROPERTY FLOW PACKAGE, VERSION 7, 5/2/2005
         INPUT READ FROM UNIT   15
 # LPF package for  MODFLOW-2005, generated by Flopy.
 HEAD AT CELLS THAT CONVERT TO DRY= -1.00000E+30
 No named parameters

   LAYER FLAGS:
 LAYER       LAYTYP        LAYAVG         CHANI        LAYVKA        LAYWET
 ---------------------------------------------------------------------------
    1             0             0     1.000E+00             0             0

   INTERPRETATION OF LAYER FLAGS:
                        INTERBLOCK     HORIZONTAL    DATA IN
         LAYER TYPE   TRANSMISSIVITY   ANISOTROPY   ARRAY VKA   WETTABILITY
 LAYER      (LAYTYP)      (LAYAVG)       (CHANI)      (LAYVKA)      (LAYWET)
 ---------------------------------------------------------------------------
    1      CONFINED      HARMONIC     1.000E+00    VERTICAL K  NON-WETTABLE

 WETTING CAPABILITY IS NOT ACTIVE IN ANY LAYER



              HYD. COND. ALONG ROWS FOR LAYER   1
 READING ON UNIT   15 WITH FORMAT: (200E15.6)          

      VERTICAL HYD. COND. =   10.0000     FOR LAYER   1

 GHB -- GENERAL-HEAD BOUNDARY PACKAGE, VERSION 7, 5/2/2005
         INPUT READ FROM UNIT   23
 # GHB package for  MODFLOW-2005, generated by Flopy.
 No named parameters
 MAXIMUM OF   7876 ACTIVE GHB CELLS AT ONE TIME


     0 GHB parameters

 RCH -- RECHARGE PACKAGE, VERSION 7, 5/2/2005 INPUT READ FROM UNIT   19
 # RCH package for  MODFLOW-2005, generated by Flopy.
 No named parameters
 OPTION 3 -- RECHARGE TO HIGHEST ACTIVE NODE IN EACH VERTICAL COLUMN


     0 Recharge parameters

 PCG -- CONJUGATE-GRADIENT SOLUTION PACKAGE, VERSION 7, 5/2/2005
 # PCG package for  MODFLOW-2005, generated by Flopy.
 MAXIMUM OF    100 CALLS OF SOLUTION ROUTINE
 MAXIMUM OF     50 INTERNAL ITERATIONS PER CALL TO SOLUTION ROUTINE
 MATRIX PRECONDITIONING TYPE :    1



                                    SOLUTION BY THE CONJUGATE-GRADIENT METHOD
                                   -------------------------------------------
                    MAXIMUM NUMBER OF CALLS TO PCG ROUTINE =      100
                        MAXIMUM ITERATIONS PER CALL TO PCG =       50
                               MATRIX PRECONDITIONING TYPE =        1
        RELAXATION FACTOR (ONLY USED WITH PRECOND. TYPE 1) =    0.10000E+01
 PARAMETER OF POLYNOMIAL PRECOND. = 2 (2) OR IS CALCULATED :        0
                         HEAD CHANGE CRITERION FOR CLOSURE =    0.10000E-05
                     RESIDUAL CHANGE CRITERION FOR CLOSURE =    0.30000E-02
            PCG HEAD AND RESIDUAL CHANGE PRINTOUT INTERVAL =      999
     PRINTING FROM SOLVER IS LIMITED(1) OR SUPPRESSED (>1) =        3
                            STEADY-STATE DAMPING PARAMETER =    0.10000E+01
                               TRANSIENT DAMPING PARAMETER =    0.10000E+01


 SWI2 -- SWI PACKAGE, VERSION 2.0.0, 07/22/2013
 --------------------------------------------------
 SWI2 INPUT READ FROM UNIT 29


 # SWI2 package for  MODFLOW-2005, generated by Flopy.
 # Dataset 1


 SWI2 DATASET 1
 ----------------------------------------------------
 NUMBER OF SURFACES (NSRF):                         1
 TOTAL NUMBER OF ZONES:                             2
 DENSITY DISTRIBUTION OPTION (ISTRAT):              1
   VARIABLE DENSITY FLOW -- ISTRAT = 0
   STRATIFIED FLOW       -- ISTRAT = 1
 NUMBER OF SWI OBSERVATIONS (NOBS):                 0
 ZETA OUTPUT FILE UNIT NUMBER (ISWIZT):            55
 BUDGET OUTPUT FILE UNIT NUMBER (ISWICB):           0
 OBSERVATION OUTPUT FILE UNIT NUMBER (ISWIOBS):     0
 ----------------------------------------------------
 # Dataset 2a


 SWI2 DATASET 2A
 ----------------------------------------------------
 SOLVER (NSOLVER):                                  1
   SOLVER =                      DIRECT SOLVER (DE4)
 SOLVER PRINTOUT INTERVAL (IPRSOL):               999
 SOLVER OUTPUT FLAG (MUTSOL):                       3
   0 = PRINTING EVERY ITERATION
   1 = LIMITED (TOTAL NUMBER OF ITERATIONS)
   2 = NO PRINTING
   3 = ONLY IF CONVERGENCE FAILS
 ----------------------------------------------------
 # Dataset 3a


 SWI2 DATASET 3A
 ----------------------------------------------------
 MAXIMUM TOE SURFACE SLOPE (TOESLOPE):      0.500E-02
 MAXIMUM TIP SURFACE SLOPE (TIPSLOPE):      0.500E-02
 EXCESS SURFACE SLOPE FRACTION (ALPHA):     0.100    
 MINIMUM ZONE THICKNESS FRACTION (BETA):    0.100    
 ----------------------------------------------------



                             NUZONE
 READING ON UNIT   29 WITH FORMAT: (2E15.6)            



                   ZETA SURFACE  1  FOR LAYER   1
 READING ON UNIT   29 WITH FORMAT: (200E15.6)          

                      SSZ =  0.200000     FOR LAYER   1



                            IZONENR FOR LAYER   1
 READING ON UNIT   29 WITH FORMAT: (200I10)            

 OBS2BAS7 -- HEAD OBSERVATIONS, VERSION 2.0, 2/28/2006
 INPUT READ FROM UNIT  39
 # HOB package for  MODFLOW-2005, generated by Flopy.

 NUMBER OF HEADS....................................:   64
   NUMBER OF MULTILAYER HEADS.......................:    0
   MAXIMUM NUMBER OF LAYERS FOR MULTILAYER HEADS....:    0
 HEAD OBSERVATIONS WILL BE SAVED ON UNIT............:    7
 SIMULATED EQUIVALENT HEAD AT DRY CELLS WILL BE:   -999.000    

 OBSERVED HEAD DATA -- TIME OFFSETS ARE MULTIPLIED BY:   1.0000    

                    REFER.
       OBSERVATION  STRESS    TIME
  OBS#    NAME      PERIOD   OFFSET    OBSERVATION
     1 Obs_0            1    0.000       5.500    
 Observation within a steady-state time step has been moved to the end of the time step.
     2 Obs_1            1    0.000      0.2000    
 Observation within a steady-state time step has been moved to the end of the time step.
     3 Obs_2            1    0.000      0.4000    
 Observation within a steady-state time step has been moved to the end of the time step.
     4 Obs_3            1    0.000      0.3000    
 Observation within a steady-state time step has been moved to the end of the time step.
     5 Obs_4            1    0.000      0.6000    
 Observation within a steady-state time step has been moved to the end of the time step.
     6 Obs_5            1    0.000       2.300    
 Observation within a steady-state time step has been moved to the end of the time step.
     7 Obs_6            1    0.000       2.600    
 Observation within a steady-state time step has been moved to the end of the time step.
     8 Obs_7            1    0.000       3.500    
 Observation within a steady-state time step has been moved to the end of the time step.
     9 Obs_8            1    0.000       1.200    
 Observation within a steady-state time step has been moved to the end of the time step.
    10 Obs_9            1    0.000       3.600    
 Observation within a steady-state time step has been moved to the end of the time step.
    11 Obs_10           1    0.000       1.500    
 Observation within a steady-state time step has been moved to the end of the time step.
    12 Obs_11           1    0.000       1.900    
 Observation within a steady-state time step has been moved to the end of the time step.
    13 Obs_12           1    0.000       1.300    
 Observation within a steady-state time step has been moved to the end of the time step.
    14 Obs_13           1    0.000      0.9000    
 Observation within a steady-state time step has been moved to the end of the time step.
    15 Obs_14           1    0.000       44.70    
 Observation within a steady-state time step has been moved to the end of the time step.
    16 Obs_15           1    0.000       2.600    
 Observation within a steady-state time step has been moved to the end of the time step.
    17 Obs_16           1    0.000       1.700    
 Observation within a steady-state time step has been moved to the end of the time step.
    18 Obs_17           1    0.000       3.000    
 Observation within a steady-state time step has been moved to the end of the time step.
    19 Obs_18           1    0.000       1.800    
 Observation within a steady-state time step has been moved to the end of the time step.
    20 Obs_19           1    0.000       5.900    
 Observation within a steady-state time step has been moved to the end of the time step.
    21 Obs_20           1    0.000       19.20    
 Observation within a steady-state time step has been moved to the end of the time step.
    22 Obs_21           1    0.000       8.000    
 Observation within a steady-state time step has been moved to the end of the time step.
    23 Obs_22           1    0.000       8.200    
 Observation within a steady-state time step has been moved to the end of the time step.
    24 Obs_23           1    0.000       5.750    
 Observation within a steady-state time step has been moved to the end of the time step.
    25 Obs_24           1    0.000       34.20    
 Observation within a steady-state time step has been moved to the end of the time step.
    26 Obs_25           1    0.000       3.200    
 Observation within a steady-state time step has been moved to the end of the time step.
    27 Obs_26           1    0.000       16.50    
 Observation within a steady-state time step has been moved to the end of the time step.
    28 Obs_27           1    0.000       25.40    
 Observation within a steady-state time step has been moved to the end of the time step.
    29 Obs_28           1    0.000       1.800    
 Observation within a steady-state time step has been moved to the end of the time step.
    30 Obs_29           1    0.000       8.800    
 Observation within a steady-state time step has been moved to the end of the time step.
    31 Obs_30           1    0.000      0.8500    
 Observation within a steady-state time step has been moved to the end of the time step.
    32 Obs_31           1    0.000      0.9000    
 Observation within a steady-state time step has been moved to the end of the time step.
    33 Obs_32           1    0.000      0.6000    
 Observation within a steady-state time step has been moved to the end of the time step.
    34 Obs_33           1    0.000       20.30    
 Observation within a steady-state time step has been moved to the end of the time step.
    35 Obs_34           1    0.000       1.800    
 Observation within a steady-state time step has been moved to the end of the time step.
    36 Obs_35           1    0.000       1.933    
 Observation within a steady-state time step has been moved to the end of the time step.
    37 Obs_36           1    0.000      0.3000    
 Observation within a steady-state time step has been moved to the end of the time step.
    38 Obs_37           1    0.000      0.5000    
 Observation within a steady-state time step has been moved to the end of the time step.
    39 Obs_38           1    0.000       1.000    
 Observation within a steady-state time step has been moved to the end of the time step.
    40 Obs_39           1    0.000       62.50    
 Observation within a steady-state time step has been moved to the end of the time step.
    41 Obs_40           1    0.000       15.80    
 Observation within a steady-state time step has been moved to the end of the time step.
    42 Obs_41           1    0.000       1.200    
 Observation within a steady-state time step has been moved to the end of the time step.
    43 Obs_42           1    0.000       7.300    
 Observation within a steady-state time step has been moved to the end of the time step.
    44 Obs_43           1    0.000       7.300    
 Observation within a steady-state time step has been moved to the end of the time step.
    45 Obs_44           1    0.000       9.800    
 Observation within a steady-state time step has been moved to the end of the time step.
    46 Obs_45           1    0.000       16.47    
 Observation within a steady-state time step has been moved to the end of the time step.
    47 Obs_46           1    0.000       1.200    
 Observation within a steady-state time step has been moved to the end of the time step.
    48 Obs_47           1    0.000       3.000    
 Observation within a steady-state time step has been moved to the end of the time step.
    49 Obs_48           1    0.000       6.650    
 Observation within a steady-state time step has been moved to the end of the time step.
    50 Obs_49           1    0.000       2.700    
 Observation within a steady-state time step has been moved to the end of the time step.
    51 Obs_50           1    0.000       6.100    
 Observation within a steady-state time step has been moved to the end of the time step.
    52 Obs_51           1    0.000      0.1000    
 Observation within a steady-state time step has been moved to the end of the time step.
    53 Obs_52           1    0.000       8.100    
 Observation within a steady-state time step has been moved to the end of the time step.
    54 Obs_53           1    0.000       8.200    
 Observation within a steady-state time step has been moved to the end of the time step.
    55 Obs_54           1    0.000       4.300    
 Observation within a steady-state time step has been moved to the end of the time step.
    56 Obs_55           1    0.000       5.567    
 Observation within a steady-state time step has been moved to the end of the time step.
    57 Obs_56           1    0.000       5.500    
 Observation within a steady-state time step has been moved to the end of the time step.
    58 Obs_57           1    0.000       7.300    
 Observation within a steady-state time step has been moved to the end of the time step.
    59 Obs_58           1    0.000       6.000    
 Observation within a steady-state time step has been moved to the end of the time step.
    60 Obs_59           1    0.000       2.700    
 Observation within a steady-state time step has been moved to the end of the time step.
    61 Obs_60           1    0.000       5.300    
 Observation within a steady-state time step has been moved to the end of the time step.
    62 Obs_61           1    0.000       3.100    
 Observation within a steady-state time step has been moved to the end of the time step.
    63 Obs_62           1    0.000       3.000    
 Observation within a steady-state time step has been moved to the end of the time step.
    64 Obs_63           1    0.000       5.700    
 Observation within a steady-state time step has been moved to the end of the time step.

                                                     HEAD CHANGE
                                                      REFERENCE
        OBSERVATION                   ROW     COL    OBSERVATION
  OBS#     NAME       LAY  ROW  COL  OFFSET  OFFSET   (IF > 0)
     1  Obs_0           1   55   22   0.000   0.000        0
     2  Obs_1           1   78   50   0.000   0.000        0
     3  Obs_2           1   81   52   0.000   0.000        0
     4  Obs_3           1   86   52   0.000   0.000        0
     5  Obs_4           1   85   53   0.000   0.000        0
     6  Obs_5           1   71   55   0.000   0.000        0
     7  Obs_6           1   74   55   0.000   0.000        0
     8  Obs_7           1   70   56   0.000   0.000        0
     9  Obs_8           1   77   57   0.000   0.000        0
    10  Obs_9           1   70   59   0.000   0.000        0
    11  Obs_10          1   76   60   0.000   0.000        0
    12  Obs_11          1   79   69   0.000   0.000        0
    13  Obs_12          1   72   71   0.000   0.000        0
    14  Obs_13          1   79   71   0.000   0.000        0
    15  Obs_14          1   64   72   0.000   0.000        0
    16  Obs_15          1   79   72   0.000   0.000        0
    17  Obs_16          1   79   73   0.000   0.000        0
    18  Obs_17          1   63   75   0.000   0.000        0
    19  Obs_18          1   78   75   0.000   0.000        0
    20  Obs_19          1   56   77   0.000   0.000        0
    21  Obs_20          1   60   77   0.000   0.000        0
    22  Obs_21          1   54   78   0.000   0.000        0
    23  Obs_22          1   58   78   0.000   0.000        0
    24  Obs_23          1   59   78   0.000   0.000        0
    25  Obs_24          1   54   79   0.000   0.000        0
    26  Obs_25          1   60   79   0.000   0.000        0
    27  Obs_26          1   52   80   0.000   0.000        0
    28  Obs_27          1   57   80   0.000   0.000        0
    29  Obs_28          1   60   80   0.000   0.000        0
    30  Obs_29          1   59   81   0.000   0.000        0
    31  Obs_30          1   64   81   0.000   0.000        0
    32  Obs_31          1   65   81   0.000   0.000        0
    33  Obs_32          1   84   81   0.000   0.000        0
    34  Obs_33          1   56   82   0.000   0.000        0
    35  Obs_34          1   62   82   0.000   0.000        0
    36  Obs_35          1   64   82   0.000   0.000        0
    37  Obs_36          1   68   85   0.000   0.000        0
    38  Obs_37          1   76   88   0.000   0.000        0
    39  Obs_38          1   63   89   0.000   0.000        0
    40  Obs_39          1   36   96   0.000   0.000        0
    41  Obs_40          1   51   97   0.000   0.000        0
    42  Obs_41          1   29   98   0.000   0.000        0
    43  Obs_42          1   30   98   0.000   0.000        0
    44  Obs_43          1   31   98   0.000   0.000        0
    45  Obs_44          1   32   99   0.000   0.000        0
    46  Obs_45          1   33   99   0.000   0.000        0
    47  Obs_46          1   27  100   0.000   0.000        0
    48  Obs_47          1   29  101   0.000   0.000        0
    49  Obs_48          1   34  107   0.000   0.000        0
    50  Obs_49          1   42  110   0.000   0.000        0
    51  Obs_50          1   41  112   0.000   0.000        0
    52  Obs_51          1   34  114   0.000   0.000        0
    53  Obs_52          1   17  122   0.000   0.000        0
    54  Obs_53          1   17  123   0.000   0.000        0
    55  Obs_54          1   26  127   0.000   0.000        0
    56  Obs_55          1   27  127   0.000   0.000        0
    57  Obs_56          1   27  128   0.000   0.000        0
    58  Obs_57          1   36  133   0.000   0.000        0
    59  Obs_58          1   37  133   0.000   0.000        0
    60  Obs_59          1   19  169   0.000   0.000        0
    61  Obs_60          1   30  174   0.000   0.000        0
    62  Obs_61          1   16  186   0.000   0.000        0
    63  Obs_62          1   15  187   0.000   0.000        0
    64  Obs_63          1   24  188   0.000   0.000        0
1
                            STRESS PERIOD NO.    1, LENGTH =   146100.0    
                            -----------------------------------------------

                              NUMBER OF TIME STEPS =   400

                               MULTIPLIER FOR DELT =     1.000

                            INITIAL TIME STEP SIZE =   365.2500    

 BOUND. NO. LAYER   ROW   COL     STAGE      CONDUCTANCE         
 ----------------------------------------------------------------
      1      1      2     90      0.1000E-01       1000.    
      2      1      2     91      0.1000E-01       1000.    
      3      1      2     92      0.1000E-01       1000.    
      4      1      2     93      0.1000E-01       1000.    
      5      1      2     94      0.1000E-01       1000.    
      6      1      2     95      0.1000E-01       1000.    
      7      1      2     96      0.1000E-01       1000.    
      8      1      2     97      0.1000E-01       1000.    
      9      1      2     98      0.1000E-01       1000.    
     10      1      2     99      0.1000E-01       1000.    
     11      1      2    100      0.1000E-01       1000.    
     12      1      2    101      0.1000E-01       1000.    
     13      1      2    102      0.1000E-01       1000.    
     14      1      2    103      0.1000E-01       1000.    
     15      1      2    104      0.1000E-01       1000.    
     16      1      2    105      0.1000E-01       1000.    
     17      1      2    106      0.1000E-01       1000.    
     18      1      2    107      0.1000E-01       1000.    
     19      1      2    108      0.1000E-01       1000.    
     20      1      2    109      0.1000E-01       1000.    
     21      1      2    110      0.1000E-01       1000.    
     22      1      2    111      0.1000E-01       1000.    
     23      1      2    112      0.1000E-01       1000.    
     24      1      2    113      0.1000E-01       1000.    
     25      1      2    114      0.1000E-01       1000.    
     26      1      2    115      0.1000E-01       1000.    
     27      1      2    116      0.1000E-01       1000.    
     28      1      2    117      0.1000E-01       1000.    
     29      1      2    118      0.1000E-01       1000.    
     30      1      2    119      0.1000E-01       1000.    
     31      1      2    120      0.1000E-01       1000.    
     32      1      2    121      0.1000E-01       1000.    
     33      1      2    122      0.1000E-01       1000.    
     34      1      2    123      0.1000E-01       1000.    
     35      1      2    124      0.1000E-01       1000.    
     36      1      2    125      0.1000E-01       1000.    
     37      1      2    126      0.1000E-01       1000.    
     38      1      2    127      0.1000E-01       1000.    
     39      1      2    128      0.1000E-01       1000.    
     40      1      2    129      0.1000E-01       1000.    
     41      1      2    130      0.1000E-01       1000.    
     42      1      2    131      0.1000E-01       1000.    
     43      1      2    132      0.1000E-01       1000.    
     44      1      2    133      0.1000E-01       1000.    
     45      1      2    134      0.1000E-01       1000.    
     46      1      2    135      0.1000E-01       1000.    
     47      1      2    136      0.1000E-01       1000.    
     48      1      2    137      0.1000E-01       1000.    
     49      1      2    138      0.1000E-01       1000.    
     50      1      2    139      0.1000E-01       1000.    
     51      1      2    140      0.1000E-01       1000.    
     52      1      2    141      0.1000E-01       1000.    
     53      1      2    142      0.1000E-01       1000.    
     54      1      2    143      0.1000E-01       1000.    
     55      1      2    144      0.1000E-01       1000.    
     56      1      2    145      0.1000E-01       1000.    
     57      1      2    146      0.1000E-01       1000.    
     58      1      2    147      0.1000E-01       1000.    
     59      1      2    148      0.1000E-01       1000.    
     60      1      2    149      0.1000E-01       1000.    
     61      1      2    150      0.1000E-01       1000.    
     62      1      2    151      0.1000E-01       1000.    
     63      1      2    152      0.1000E-01       1000.    
     64      1      2    153      0.1000E-01       1000.    
     65      1      2    154      0.1000E-01       1000.    
     66      1      2    155      0.1000E-01       1000.    
     67      1      2    156      0.1000E-01       1000.    
     68      1      2    157      0.1000E-01       1000.    
     69      1      2    158      0.1000E-01       1000.    
     70      1      2    159      0.1000E-01       1000.    
     71      1      2    160      0.1000E-01       1000.    
     72      1      2    161      0.1000E-01       1000.    
     73      1      2    162      0.1000E-01       1000.    
     74      1      2    163      0.1000E-01       1000.    
     75      1      2    164      0.1000E-01       1000.    
     76      1      2    165      0.1000E-01       1000.    
     77      1      2    166      0.1000E-01       1000.    
     78      1      2    167      0.1000E-01       1000.    
     79      1      2    168      0.1000E-01       1000.    
     80      1      2    169      0.1000E-01       1000.    
     81      1      2    170      0.1000E-01       1000.    
     82      1      2    171      0.1000E-01       1000.    
     83      1      2    172      0.1000E-01       1000.    
     84      1      2    173      0.1000E-01       1000.    
     85      1      2    174      0.1000E-01       1000.    
     86      1      2    175      0.1000E-01       1000.    
     87      1      2    176      0.1000E-01       1000.    
     88      1      2    177      0.1000E-01       1000.    
     89      1      2    178      0.1000E-01       1000.    
     90      1      2    179      0.1000E-01       1000.    
     91      1      2    180      0.1000E-01       1000.    
     92      1      2    181      0.1000E-01       1000.    
     93      1      2    182      0.1000E-01       1000.    
     94      1      2    183      0.1000E-01       1000.    
     95      1      2    184      0.1000E-01       1000.    
     96      1      2    185      0.1000E-01       1000.    
     97      1      2    186      0.1000E-01       1000.    
     98      1      2    187      0.1000E-01       1000.    
     99      1      2    188      0.1000E-01       1000.    
    100      1      2    189      0.1000E-01       1000.    
    101      1      2    190      0.1000E-01       1000.    
    102      1      2    191      0.1000E-01       1000.    
    103      1      2    192      0.1000E-01       1000.    
    104      1      2    193      0.1000E-01       1000.    
    105      1      2    194      0.1000E-01       1000.    
    106      1      2    195      0.1000E-01       1000.    
    107      1      2    196      0.1000E-01       1000.    
    108      1      2    197      0.1000E-01       1000.    
    109      1      2    198      0.1000E-01       1000.    
    110      1      2    199      0.1000E-01       1000.    
    111      1      3     89      0.1000E-01       1000.    
    112      1      3     90      0.1000E-01       1000.    
    113      1      3     91      0.1000E-01       1000.    
    114      1      3     92      0.1000E-01       1000.    
    115      1      3     93      0.1000E-01       1000.    
    116      1      3     94      0.1000E-01       1000.    
    117      1      3     95      0.1000E-01       1000.    
    118      1      3     96      0.1000E-01       1000.    
    119      1      3     97      0.1000E-01       1000.    
    120      1      3     98      0.1000E-01       1000.    
    121      1      3     99      0.1000E-01       1000.    
    122      1      3    100      0.1000E-01       1000.    
    123      1      3    101      0.1000E-01       1000.    
    124      1      3    102      0.1000E-01       1000.    
    125      1      3    103      0.1000E-01       1000.    
    126      1      3    104      0.1000E-01       1000.    
    127      1      3    105      0.1000E-01       1000.    
    128      1      3    106      0.1000E-01       1000.    
    129      1      3    107      0.1000E-01       1000.    
    130      1      3    108      0.1000E-01       1000.    
    131      1      3    109      0.1000E-01       1000.    
    132      1      3    110      0.1000E-01       1000.    
    133      1      3    111      0.1000E-01       1000.    
    134      1      3    112      0.1000E-01       1000.    
    135      1      3    113      0.1000E-01       1000.    
    136      1      3    114      0.1000E-01       1000.    
    137      1      3    115      0.1000E-01       1000.    
    138      1      3    116      0.1000E-01       1000.    
    139      1      3    117      0.1000E-01       1000.    
    140      1      3    118      0.1000E-01       1000.    
    141      1      3    119      0.1000E-01       1000.    
    142      1      3    120      0.1000E-01       1000.    
    143      1      3    121      0.1000E-01       1000.    
    144      1      3    122      0.1000E-01       1000.    
    145      1      3    123      0.1000E-01       1000.    
    146      1      3    124      0.1000E-01       1000.    
    147      1      3    125      0.1000E-01       1000.    
    148      1      3    126      0.1000E-01       1000.    
    149      1      3    127      0.1000E-01       1000.    
    150      1      3    128      0.1000E-01       1000.    
    151      1      3    129      0.1000E-01       1000.    
    152      1      3    130      0.1000E-01       1000.    
    153      1      3    131      0.1000E-01       1000.    
    154      1      3    132      0.1000E-01       1000.    
    155      1      3    133      0.1000E-01       1000.    
    156      1      3    134      0.1000E-01       1000.    
    157      1      3    135      0.1000E-01       1000.    
    158      1      3    136      0.1000E-01       1000.    
    159      1      3    137      0.1000E-01       1000.    
    160      1      3    138      0.1000E-01       1000.    
    161      1      3    139      0.1000E-01       1000.    
    162      1      3    140      0.1000E-01       1000.    
    163      1      3    141      0.1000E-01       1000.    
    164      1      3    142      0.1000E-01       1000.    
    165      1      3    143      0.1000E-01       1000.    
    166      1      3    144      0.1000E-01       1000.    
    167      1      3    145      0.1000E-01       1000.    
    168      1      3    146      0.1000E-01       1000.    
    169      1      3    147      0.1000E-01       1000.    
    170      1      3    148      0.1000E-01       1000.    
    171      1      3    149      0.1000E-01       1000.    
    172      1      3    150      0.1000E-01       1000.    
    173      1      3    151      0.1000E-01       1000.    
    174      1      3    152      0.1000E-01       1000.    
    175      1      3    153      0.1000E-01       1000.    
    176      1      3    154      0.1000E-01       1000.    
    177      1      3    155      0.1000E-01       1000.    
    178      1      3    156      0.1000E-01       1000.    
    179      1      3    157      0.1000E-01       1000.    
    180      1      3    158      0.1000E-01       1000.    
    181      1      3    159      0.1000E-01       1000.    
    182      1      3    160      0.1000E-01       1000.    
    183      1      3    161      0.1000E-01       1000.    
    184      1      3    162      0.1000E-01       1000.    
    185      1      3    163      0.1000E-01       1000.    
    186      1      3    164      0.1000E-01       1000.    
    187      1      3    165      0.1000E-01       1000.    
    188      1      3    166      0.1000E-01       1000.    
    189      1      3    167      0.1000E-01       1000.    
    190      1      3    168      0.1000E-01       1000.    
    191      1      3    169      0.1000E-01       1000.    
    192      1      3    170      0.1000E-01       1000.    
    193      1      3    171      0.1000E-01       1000.    
    194      1      3    172      0.1000E-01       1000.    
    195      1      3    173      0.1000E-01       1000.    
    196      1      3    174      0.1000E-01       1000.    
    197      1      3    175      0.1000E-01       1000.    
    198      1      3    176      0.1000E-01       1000.    
    199      1      3    177      0.1000E-01       1000.    
    200      1      3    178      0.1000E-01       1000.    
    201      1      3    179      0.1000E-01       1000.    
    202      1      3    180      0.1000E-01       1000.    
    203      1      3    181      0.1000E-01       1000.    
    204      1      3    182      0.1000E-01       1000.    
    205      1      3    183      0.1000E-01       1000.    
    206      1      3    184      0.1000E-01       1000.    
    207      1      3    185      0.1000E-01       1000.    
    208      1      3    186      0.1000E-01       1000.    
    209      1      3    187      0.1000E-01       1000.    
    210      1      3    188      0.1000E-01       1000.    
    211      1      3    189      0.1000E-01       1000.    
    212      1      3    190      0.1000E-01       1000.    
    213      1      3    191      0.1000E-01       1000.    
    214      1      3    192      0.1000E-01       1000.    
    215      1      3    193      0.1000E-01       1000.    
    216      1      3    194      0.1000E-01       1000.    
    217      1      3    195      0.1000E-01       1000.    
    218      1      3    196      0.1000E-01       1000.    
    219      1      3    197      0.1000E-01       1000.    
    220      1      3    198      0.1000E-01       1000.    
    221      1      3    199      0.1000E-01       1000.    
    222      1      4     89      0.1000E-01       1000.    
    223      1      4     90      0.1000E-01       1000.    
    224      1      4     91      0.1000E-01       1000.    
    225      1      4     92      0.1000E-01       1000.    
    226      1      4     93      0.1000E-01       1000.    
    227      1      4     94      0.1000E-01       1000.    
    228      1      4     95      0.1000E-01       1000.    
    229      1      4     96      0.1000E-01       1000.    
    230      1      4     97      0.1000E-01       1000.    
    231      1      4     98      0.1000E-01       1000.    
    232      1      4     99      0.1000E-01       1000.    
    233      1      4    100      0.1000E-01       1000.    
    234      1      4    101      0.1000E-01       1000.    
    235      1      4    102      0.1000E-01       1000.    
    236      1      4    103      0.1000E-01       1000.    
    237      1      4    104      0.1000E-01       1000.    
    238      1      4    105      0.1000E-01       1000.    
    239      1      4    106      0.1000E-01       1000.    
    240      1      4    107      0.1000E-01       1000.    
    241      1      4    108      0.1000E-01       1000.    
    242      1      4    109      0.1000E-01       1000.    
    243      1      4    110      0.1000E-01       1000.    
    244      1      4    111      0.1000E-01       1000.    
    245      1      4    112      0.1000E-01       1000.    
    246      1      4    113      0.1000E-01       1000.    
    247      1      4    114      0.1000E-01       1000.    
    248      1      4    115      0.1000E-01       1000.    
    249      1      4    116      0.1000E-01       1000.    
    250      1      4    117      0.1000E-01       1000.    
    251      1      4    118      0.1000E-01       1000.    
    252      1      4    119      0.1000E-01       1000.    
    253      1      4    120      0.1000E-01       1000.    
    254      1      4    121      0.1000E-01       1000.    
    255      1      4    122      0.1000E-01       1000.    
    256      1      4    123      0.1000E-01       1000.    
    257      1      4    124      0.1000E-01       1000.    
    258      1      4    125      0.1000E-01       1000.    
    259      1      4    126      0.1000E-01       1000.    
    260      1      4    127      0.1000E-01       1000.    
    261      1      4    128      0.1000E-01       1000.    
    262      1      4    129      0.1000E-01       1000.    
    263      1      4    130      0.1000E-01       1000.    
    264      1      4    131      0.1000E-01       1000.    
    265      1      4    132      0.1000E-01       1000.    
    266      1      4    133      0.1000E-01       1000.    
    267      1      4    134      0.1000E-01       1000.    
    268      1      4    135      0.1000E-01       1000.    
    269      1      4    136      0.1000E-01       1000.    
    270      1      4    137      0.1000E-01       1000.    
    271      1      4    138      0.1000E-01       1000.    
    272      1      4    139      0.1000E-01       1000.    
    273      1      4    140      0.1000E-01       1000.    
    274      1      4    141      0.1000E-01       1000.    
    275      1      4    142      0.1000E-01       1000.    
    276      1      4    143      0.1000E-01       1000.    
    277      1      4    144      0.1000E-01       1000.    
    278      1      4    145      0.1000E-01       1000.    
    279      1      4    146      0.1000E-01       1000.    
    280      1      4    147      0.1000E-01       1000.    
    281      1      4    148      0.1000E-01       1000.    
    282      1      4    149      0.1000E-01       1000.    
    283      1      4    150      0.1000E-01       1000.    
    284      1      4    151      0.1000E-01       1000.    
    285      1      4    152      0.1000E-01       1000.    
    286      1      4    153      0.1000E-01       1000.    
    287      1      4    154      0.1000E-01       1000.    
    288      1      4    155      0.1000E-01       1000.    
    289      1      4    156      0.1000E-01       1000.    
    290      1      4    157      0.1000E-01       1000.    
    291      1      4    158      0.1000E-01       1000.    
    292      1      4    159      0.1000E-01       1000.    
    293      1      4    160      0.1000E-01       1000.    
    294      1      4    161      0.1000E-01       1000.    
    295      1      4    162      0.1000E-01       1000.    
    296      1      4    163      0.1000E-01       1000.    
    297      1      4    164      0.1000E-01       1000.    
    298      1      4    165      0.1000E-01       1000.    
    299      1      4    166      0.1000E-01       1000.    
    300      1      4    167      0.1000E-01       1000.    
    301      1      4    168      0.1000E-01       1000.    
    302      1      4    169      0.1000E-01       1000.    
    303      1      4    170      0.1000E-01       1000.    
    304      1      4    171      0.1000E-01       1000.    
    305      1      4    172      0.1000E-01       1000.    
    306      1      4    173      0.1000E-01       1000.    
    307      1      4    174      0.1000E-01       1000.    
    308      1      4    175      0.1000E-01       1000.    
    309      1      4    176      0.1000E-01       1000.    
    310      1      4    177      0.1000E-01       1000.    
    311      1      4    178      0.1000E-01       1000.    
    312      1      4    179      0.1000E-01       1000.    
    313      1      4    180      0.1000E-01       1000.    
    314      1      4    181      0.1000E-01       1000.    
    315      1      4    182      0.1000E-01       1000.    
    316      1      4    183      0.1000E-01       1000.    
    317      1      4    184      0.1000E-01       1000.    
    318      1      4    185      0.1000E-01       1000.    
    319      1      4    186      0.1000E-01       1000.    
    320      1      4    187      0.1000E-01       1000.    
    321      1      4    188      0.1000E-01       1000.    
    322      1      4    189      0.1000E-01       1000.    
    323      1      4    190      0.1000E-01       1000.    
    324      1      4    191      0.1000E-01       1000.    
    325      1      4    192      0.1000E-01       1000.    
    326      1      4    193      0.1000E-01       1000.    
    327      1      4    194      0.1000E-01       1000.    
    328      1      4    195      0.1000E-01       1000.    
    329      1      4    196      0.1000E-01       1000.    
    330      1      4    197      0.1000E-01       1000.    
    331      1      4    198      0.1000E-01       1000.    
    332      1      4    199      0.1000E-01       1000.    
    333      1      5     88      0.1000E-01       1000.    
    334      1      5     89      0.1000E-01       1000.    
    335      1      5     90      0.1000E-01       1000.    
    336      1      5     91      0.1000E-01       1000.    
    337      1      5     92      0.1000E-01       1000.    
    338      1      5     93      0.1000E-01       1000.    
    339      1      5     94      0.1000E-01       1000.    
    340      1      5     95      0.1000E-01       1000.    
    341      1      5     96      0.1000E-01       1000.    
    342      1      5     97      0.1000E-01       1000.    
    343      1      5     98      0.1000E-01       1000.    
    344      1      5     99      0.1000E-01       1000.    
    345      1      5    100      0.1000E-01       1000.    
    346      1      5    101      0.1000E-01       1000.    
    347      1      5    102      0.1000E-01       1000.    
    348      1      5    103      0.1000E-01       1000.    
    349      1      5    104      0.1000E-01       1000.    
    350      1      5    105      0.1000E-01       1000.    
    351      1      5    106      0.1000E-01       1000.    
    352      1      5    107      0.1000E-01       1000.    
    353      1      5    108      0.1000E-01       1000.    
    354      1      5    109      0.1000E-01       1000.    
    355      1      5    110      0.1000E-01       1000.    
    356      1      5    111      0.1000E-01       1000.    
    357      1      5    112      0.1000E-01       1000.    
    358      1      5    113      0.1000E-01       1000.    
    359      1      5    114      0.1000E-01       1000.    
    360      1      5    115      0.1000E-01       1000.    
    361      1      5    116      0.1000E-01       1000.    
    362      1      5    117      0.1000E-01       1000.    
    363      1      5    118      0.1000E-01       1000.    
    364      1      5    119      0.1000E-01       1000.    
    365      1      5    120      0.1000E-01       1000.    
    366      1      5    121      0.1000E-01       1000.    
    367      1      5    122      0.1000E-01       1000.    
    368      1      5    123      0.1000E-01       1000.    
    369      1      5    124      0.1000E-01       1000.    
    370      1      5    125      0.1000E-01       1000.    
    371      1      5    126      0.1000E-01       1000.    
    372      1      5    127      0.1000E-01       1000.    
    373      1      5    128      0.1000E-01       1000.    
    374      1      5    129      0.1000E-01       1000.    
    375      1      5    130      0.1000E-01       1000.    
    376      1      5    131      0.1000E-01       1000.    
    377      1      5    132      0.1000E-01       1000.    
    378      1      5    133      0.1000E-01       1000.    
    379      1      5    134      0.1000E-01       1000.    
    380      1      5    135      0.1000E-01       1000.    
    381      1      5    136      0.1000E-01       1000.    
    382      1      5    137      0.1000E-01       1000.    
    383      1      5    138      0.1000E-01       1000.    
    384      1      5    139      0.1000E-01       1000.    
    385      1      5    140      0.1000E-01       1000.    
    386      1      5    141      0.1000E-01       1000.    
    387      1      5    142      0.1000E-01       1000.    
    388      1      5    143      0.1000E-01       1000.    
    389      1      5    144      0.1000E-01       1000.    
    390      1      5    145      0.1000E-01       1000.    
    391      1      5    146      0.1000E-01       1000.    
    392      1      5    147      0.1000E-01       1000.    
    393      1      5    148      0.1000E-01       1000.    
    394      1      5    149      0.1000E-01       1000.    
    395      1      5    150      0.1000E-01       1000.    
    396      1      5    151      0.1000E-01       1000.    
    397      1      5    152      0.1000E-01       1000.    
    398      1      5    153      0.1000E-01       1000.    
    399      1      5    154      0.1000E-01       1000.    
    400      1      5    155      0.1000E-01       1000.    
    401      1      5    156      0.1000E-01       1000.    
    402      1      5    157      0.1000E-01       1000.    
    403      1      5    158      0.1000E-01       1000.    
    404      1      5    159      0.1000E-01       1000.    
    405      1      5    160      0.1000E-01       1000.    
    406      1      5    161      0.1000E-01       1000.    
    407      1      5    162      0.1000E-01       1000.    
    408      1      5    163      0.1000E-01       1000.    
    409      1      5    164      0.1000E-01       1000.    
    410      1      5    165      0.1000E-01       1000.    
    411      1      5    166      0.1000E-01       1000.    
    412      1      5    167      0.1000E-01       1000.    
    413      1      5    168      0.1000E-01       1000.    
    414      1      5    169      0.1000E-01       1000.    
    415      1      5    170      0.1000E-01       1000.    
    416      1      5    171      0.1000E-01       1000.    
    417      1      5    172      0.1000E-01       1000.    
    418      1      5    173      0.1000E-01       1000.    
    419      1      5    174      0.1000E-01       1000.    
    420      1      5    175      0.1000E-01       1000.    
    421      1      5    176      0.1000E-01       1000.    
    422      1      5    177      0.1000E-01       1000.    
    423      1      5    178      0.1000E-01       1000.    
    424      1      5    179      0.1000E-01       1000.    
    425      1      5    180      0.1000E-01       1000.    
    426      1      5    181      0.1000E-01       1000.    
    427      1      5    182      0.1000E-01       1000.    
    428      1      5    183      0.1000E-01       1000.    
    429      1      5    184      0.1000E-01       1000.    
    430      1      5    185      0.1000E-01       1000.    
    431      1      5    186      0.1000E-01       1000.    
    432      1      5    187      0.1000E-01       1000.    
    433      1      5    188      0.1000E-01       1000.    
    434      1      5    189      0.1000E-01       1000.    
    435      1      5    190      0.1000E-01       1000.    
    436      1      5    191      0.1000E-01       1000.    
    437      1      5    192      0.1000E-01       1000.    
    438      1      5    193      0.1000E-01       1000.    
    439      1      5    194      0.1000E-01       1000.    
    440      1      5    195      0.1000E-01       1000.    
    441      1      5    196      0.1000E-01       1000.    
    442      1      5    197      0.1000E-01       1000.    
    443      1      5    198      0.1000E-01       1000.    
    444      1      5    199      0.1000E-01       1000.    
    445      1      6     87      0.1000E-01       1000.    
    446      1      6     88      0.1000E-01       1000.    
    447      1      6     89      0.1000E-01       1000.    
    448      1      6     90      0.1000E-01       1000.    
    449      1      6     91      0.1000E-01       1000.    
    450      1      6     92      0.1000E-01       1000.    
    451      1      6     93      0.1000E-01       1000.    
    452      1      6     94      0.1000E-01       1000.    
    453      1      6     95      0.1000E-01       1000.    
    454      1      6     96      0.1000E-01       1000.    
    455      1      6     97      0.1000E-01       1000.    
    456      1      6     98      0.1000E-01       1000.    
    457      1      6     99      0.1000E-01       1000.    
    458      1      6    100      0.1000E-01       1000.    
    459      1      6    101      0.1000E-01       1000.    
    460      1      6    102      0.1000E-01       1000.    
    461      1      6    103      0.1000E-01       1000.    
    462      1      6    104      0.1000E-01       1000.    
    463      1      6    105      0.1000E-01       1000.    
    464      1      6    106      0.1000E-01       1000.    
    465      1      6    107      0.1000E-01       1000.    
    466      1      6    108      0.1000E-01       1000.    
    467      1      6    109      0.1000E-01       1000.    
    468      1      6    110      0.1000E-01       1000.    
    469      1      6    111      0.1000E-01       1000.    
    470      1      6    112      0.1000E-01       1000.    
    471      1      6    113      0.1000E-01       1000.    
    472      1      6    114      0.1000E-01       1000.    
    473      1      6    115      0.1000E-01       1000.    
    474      1      6    116      0.1000E-01       1000.    
    475      1      6    117      0.1000E-01       1000.    
    476      1      6    118      0.1000E-01       1000.    
    477      1      6    119      0.1000E-01       1000.    
    478      1      6    121      0.1000E-01       1000.    
    479      1      6    122      0.1000E-01       1000.    
    480      1      6    123      0.1000E-01       1000.    
    481      1      6    124      0.1000E-01       1000.    
    482      1      6    125      0.1000E-01       1000.    
    483      1      6    126      0.1000E-01       1000.    
    484      1      6    127      0.1000E-01       1000.    
    485      1      6    128      0.1000E-01       1000.    
    486      1      6    129      0.1000E-01       1000.    
    487      1      6    130      0.1000E-01       1000.    
    488      1      6    131      0.1000E-01       1000.    
    489      1      6    132      0.1000E-01       1000.    
    490      1      6    133      0.1000E-01       1000.    
    491      1      6    134      0.1000E-01       1000.    
    492      1      6    135      0.1000E-01       1000.    
    493      1      6    136      0.1000E-01       1000.    
    494      1      6    137      0.1000E-01       1000.    
    495      1      6    138      0.1000E-01       1000.    
    496      1      6    139      0.1000E-01       1000.    
    497      1      6    140      0.1000E-01       1000.    
    498      1      6    141      0.1000E-01       1000.    
    499      1      6    142      0.1000E-01       1000.    
    500      1      6    143      0.1000E-01       1000.    
    501      1      6    144      0.1000E-01       1000.    
    502      1      6    145      0.1000E-01       1000.    
    503      1      6    146      0.1000E-01       1000.    
    504      1      6    147      0.1000E-01       1000.    
    505      1      6    148      0.1000E-01       1000.    
    506      1      6    149      0.1000E-01       1000.    
    507      1      6    150      0.1000E-01       1000.    
    508      1      6    151      0.1000E-01       1000.    
    509      1      6    152      0.1000E-01       1000.    
    510      1      6    153      0.1000E-01       1000.    
    511      1      6    154      0.1000E-01       1000.    
    512      1      6    155      0.1000E-01       1000.    
    513      1      6    156      0.1000E-01       1000.    
    514      1      6    157      0.1000E-01       1000.    
    515      1      6    158      0.1000E-01       1000.    
    516      1      6    159      0.1000E-01       1000.    
    517      1      6    160      0.1000E-01       1000.    
    518      1      6    161      0.1000E-01       1000.    
    519      1      6    162      0.1000E-01       1000.    
    520      1      6    163      0.1000E-01       1000.    
    521      1      6    164      0.1000E-01       1000.    
    522      1      6    165      0.1000E-01       1000.    
    523      1      6    166      0.1000E-01       1000.    
    524      1      6    167      0.1000E-01       1000.    
    525      1      6    168      0.1000E-01       1000.    
    526      1      6    169      0.1000E-01       1000.    
    527      1      6    170      0.1000E-01       1000.    
    528      1      6    171      0.1000E-01       1000.    
    529      1      6    172      0.1000E-01       1000.    
    530      1      6    173      0.1000E-01       1000.    
    531      1      6    174      0.1000E-01       1000.    
    532      1      6    175      0.1000E-01       1000.    
    533      1      6    176      0.1000E-01       1000.    
    534      1      6    177      0.1000E-01       1000.    
    535      1      6    178      0.1000E-01       1000.    
    536      1      6    179      0.1000E-01       1000.    
    537      1      6    180      0.1000E-01       1000.    
    538      1      6    181      0.1000E-01       1000.    
    539      1      6    182      0.1000E-01       1000.    
    540      1      6    183      0.1000E-01       1000.    
    541      1      6    184      0.1000E-01       1000.    
    542      1      6    185      0.1000E-01       1000.    
    543      1      6    186      0.1000E-01       1000.    
    544      1      6    187      0.1000E-01       1000.    
    545      1      6    188      0.1000E-01       1000.    
    546      1      6    189      0.1000E-01       1000.    
    547      1      6    190      0.1000E-01       1000.    
    548      1      6    191      0.1000E-01       1000.    
    549      1      6    192      0.1000E-01       1000.    
    550      1      6    193      0.1000E-01       1000.    
    551      1      6    194      0.1000E-01       1000.    
    552      1      6    195      0.1000E-01       1000.    
    553      1      6    196      0.1000E-01       1000.    
    554      1      6    197      0.1000E-01       1000.    
    555      1      6    198      0.1000E-01       1000.    
    556      1      6    199      0.1000E-01       1000.    
    557      1      7     87      0.1000E-01       1000.    
    558      1      7     88      0.1000E-01       1000.    
    559      1      7     89      0.1000E-01       1000.    
    560      1      7     90      0.1000E-01       1000.    
    561      1      7     91      0.1000E-01       1000.    
    562      1      7     92      0.1000E-01       1000.    
    563      1      7     93      0.1000E-01       1000.    
    564      1      7     94      0.1000E-01       1000.    
    565      1      7     95      0.1000E-01       1000.    
    566      1      7     96      0.1000E-01       1000.    
    567      1      7     97      0.1000E-01       1000.    
    568      1      7     98      0.1000E-01       1000.    
    569      1      7     99      0.1000E-01       1000.    
    570      1      7    100      0.1000E-01       1000.    
    571      1      7    101      0.1000E-01       1000.    
    572      1      7    102      0.1000E-01       1000.    
    573      1      7    103      0.1000E-01       1000.    
    574      1      7    104      0.1000E-01       1000.    
    575      1      7    105      0.1000E-01       1000.    
    576      1      7    106      0.1000E-01       1000.    
    577      1      7    107      0.1000E-01       1000.    
    578      1      7    108      0.1000E-01       1000.    
    579      1      7    109      0.1000E-01       1000.    
    580      1      7    110      0.1000E-01       1000.    
    581      1      7    111      0.1000E-01       1000.    
    582      1      7    112      0.1000E-01       1000.    
    583      1      7    113      0.1000E-01       1000.    
    584      1      7    114      0.1000E-01       1000.    
    585      1      7    115      0.1000E-01       1000.    
    586      1      7    116      0.1000E-01       1000.    
    587      1      7    117      0.1000E-01       1000.    
    588      1      7    118      0.1000E-01       1000.    
    589      1      7    121      0.1000E-01       1000.    
    590      1      7    122      0.1000E-01       1000.    
    591      1      7    123      0.1000E-01       1000.    
    592      1      7    124      0.1000E-01       1000.    
    593      1      7    125      0.1000E-01       1000.    
    594      1      7    126      0.1000E-01       1000.    
    595      1      7    127      0.1000E-01       1000.    
    596      1      7    128      0.1000E-01       1000.    
    597      1      7    129      0.1000E-01       1000.    
    598      1      7    130      0.1000E-01       1000.    
    599      1      7    131      0.1000E-01       1000.    
    600      1      7    132      0.1000E-01       1000.    
    601      1      7    133      0.1000E-01       1000.    
    602      1      7    134      0.1000E-01       1000.    
    603      1      7    135      0.1000E-01       1000.    
    604      1      7    136      0.1000E-01       1000.    
    605      1      7    137      0.1000E-01       1000.    
    606      1      7    138      0.1000E-01       1000.    
    607      1      7    139      0.1000E-01       1000.    
    608      1      7    140      0.1000E-01       1000.    
    609      1      7    141      0.1000E-01       1000.    
    610      1      7    142      0.1000E-01       1000.    
    611      1      7    143      0.1000E-01       1000.    
    612      1      7    144      0.1000E-01       1000.    
    613      1      7    145      0.1000E-01       1000.    
    614      1      7    146      0.1000E-01       1000.    
    615      1      7    147      0.1000E-01       1000.    
    616      1      7    148      0.1000E-01       1000.    
    617      1      7    149      0.1000E-01       1000.    
    618      1      7    150      0.1000E-01       1000.    
    619      1      7    151      0.1000E-01       1000.    
    620      1      7    152      0.1000E-01       1000.    
    621      1      7    153      0.1000E-01       1000.    
    622      1      7    154      0.1000E-01       1000.    
    623      1      7    155      0.1000E-01       1000.    
    624      1      7    156      0.1000E-01       1000.    
    625      1      7    157      0.1000E-01       1000.    
    626      1      7    158      0.1000E-01       1000.    
    627      1      7    159      0.1000E-01       1000.    
    628      1      7    160      0.1000E-01       1000.    
    629      1      7    161      0.1000E-01       1000.    
    630      1      7    162      0.1000E-01       1000.    
    631      1      7    163      0.1000E-01       1000.    
    632      1      7    164      0.1000E-01       1000.    
    633      1      7    165      0.1000E-01       1000.    
    634      1      7    166      0.1000E-01       1000.    
    635      1      7    167      0.1000E-01       1000.    
    636      1      7    168      0.1000E-01       1000.    
    637      1      7    169      0.1000E-01       1000.    
    638      1      7    170      0.1000E-01       1000.    
    639      1      7    171      0.1000E-01       1000.    
    640      1      7    172      0.1000E-01       1000.    
    641      1      7    173      0.1000E-01       1000.    
    642      1      7    174      0.1000E-01       1000.    
    643      1      7    175      0.1000E-01       1000.    
    644      1      7    176      0.1000E-01       1000.    
    645      1      7    177      0.1000E-01       1000.    
    646      1      7    178      0.1000E-01       1000.    
    647      1      7    179      0.1000E-01       1000.    
    648      1      7    180      0.1000E-01       1000.    
    649      1      7    181      0.1000E-01       1000.    
    650      1      7    182      0.1000E-01       1000.    
    651      1      7    183      0.1000E-01       1000.    
    652      1      7    184      0.1000E-01       1000.    
    653      1      7    185      0.1000E-01       1000.    
    654      1      7    186      0.1000E-01       1000.    
    655      1      7    187      0.1000E-01       1000.    
    656      1      7    188      0.1000E-01       1000.    
    657      1      7    189      0.1000E-01       1000.    
    658      1      7    190      0.1000E-01       1000.    
    659      1      7    191      0.1000E-01       1000.    
    660      1      7    192      0.1000E-01       1000.    
    661      1      7    193      0.1000E-01       1000.    
    662      1      7    194      0.1000E-01       1000.    
    663      1      7    195      0.1000E-01       1000.    
    664      1      7    196      0.1000E-01       1000.    
    665      1      7    197      0.1000E-01       1000.    
    666      1      7    198      0.1000E-01       1000.    
    667      1      7    199      0.1000E-01       1000.    
    668      1      8     86      0.1000E-01       1000.    
    669      1      8     87      0.1000E-01       1000.    
    670      1      8     88      0.1000E-01       1000.    
    671      1      8     89      0.1000E-01       1000.    
    672      1      8     90      0.1000E-01       1000.    
    673      1      8     91      0.1000E-01       1000.    
    674      1      8     92      0.1000E-01       1000.    
    675      1      8     93      0.1000E-01       1000.    
    676      1      8     94      0.1000E-01       1000.    
    677      1      8     95      0.1000E-01       1000.    
    678      1      8     96      0.1000E-01       1000.    
    679      1      8     97      0.1000E-01       1000.    
    680      1      8     98      0.1000E-01       1000.    
    681      1      8     99      0.1000E-01       1000.    
    682      1      8    100      0.1000E-01       1000.    
    683      1      8    101      0.1000E-01       1000.    
    684      1      8    102      0.1000E-01       1000.    
    685      1      8    103      0.1000E-01       1000.    
    686      1      8    104      0.1000E-01       1000.    
    687      1      8    105      0.1000E-01       1000.    
    688      1      8    106      0.1000E-01       1000.    
    689      1      8    107      0.1000E-01       1000.    
    690      1      8    108      0.1000E-01       1000.    
    691      1      8    109      0.1000E-01       1000.    
    692      1      8    110      0.1000E-01       1000.    
    693      1      8    111      0.1000E-01       1000.    
    694      1      8    112      0.1000E-01       1000.    
    695      1      8    113      0.1000E-01       1000.    
    696      1      8    114      0.1000E-01       1000.    
    697      1      8    115      0.1000E-01       1000.    
    698      1      8    116      0.1000E-01       1000.    
    699      1      8    121      0.1000E-01       1000.    
    700      1      8    122      0.1000E-01       1000.    
    701      1      8    123      0.1000E-01       1000.    
    702      1      8    124      0.1000E-01       1000.    
    703      1      8    125      0.1000E-01       1000.    
    704      1      8    126      0.1000E-01       1000.    
    705      1      8    127      0.1000E-01       1000.    
    706      1      8    128      0.1000E-01       1000.    
    707      1      8    129      0.1000E-01       1000.    
    708      1      8    130      0.1000E-01       1000.    
    709      1      8    131      0.1000E-01       1000.    
    710      1      8    132      0.1000E-01       1000.    
    711      1      8    133      0.1000E-01       1000.    
    712      1      8    134      0.1000E-01       1000.    
    713      1      8    135      0.1000E-01       1000.    
    714      1      8    136      0.1000E-01       1000.    
    715      1      8    137      0.1000E-01       1000.    
    716      1      8    138      0.1000E-01       1000.    
    717      1      8    139      0.1000E-01       1000.    
    718      1      8    140      0.1000E-01       1000.    
    719      1      8    141      0.1000E-01       1000.    
    720      1      8    142      0.1000E-01       1000.    
    721      1      8    143      0.1000E-01       1000.    
    722      1      8    144      0.1000E-01       1000.    
    723      1      8    145      0.1000E-01       1000.    
    724      1      8    146      0.1000E-01       1000.    
    725      1      8    147      0.1000E-01       1000.    
    726      1      8    148      0.1000E-01       1000.    
    727      1      8    149      0.1000E-01       1000.    
    728      1      8    150      0.1000E-01       1000.    
    729      1      8    151      0.1000E-01       1000.    
    730      1      8    152      0.1000E-01       1000.    
    731      1      8    153      0.1000E-01       1000.    
    732      1      8    154      0.1000E-01       1000.    
    733      1      8    155      0.1000E-01       1000.    
    734      1      8    156      0.1000E-01       1000.    
    735      1      8    157      0.1000E-01       1000.    
    736      1      8    158      0.1000E-01       1000.    
    737      1      8    159      0.1000E-01       1000.    
    738      1      8    160      0.1000E-01       1000.    
    739      1      8    161      0.1000E-01       1000.    
    740      1      8    162      0.1000E-01       1000.    
    741      1      8    163      0.1000E-01       1000.    
    742      1      8    164      0.1000E-01       1000.    
    743      1      8    165      0.1000E-01       1000.    
    744      1      8    166      0.1000E-01       1000.    
    745      1      8    167      0.1000E-01       1000.    
    746      1      8    168      0.1000E-01       1000.    
    747      1      8    169      0.1000E-01       1000.    
    748      1      8    170      0.1000E-01       1000.    
    749      1      8    171      0.1000E-01       1000.    
    750      1      8    172      0.1000E-01       1000.    
    751      1      8    173      0.1000E-01       1000.    
    752      1      8    174      0.1000E-01       1000.    
    753      1      8    175      0.1000E-01       1000.    
    754      1      8    176      0.1000E-01       1000.    
    755      1      8    177      0.1000E-01       1000.    
    756      1      8    178      0.1000E-01       1000.    
    757      1      8    179      0.1000E-01       1000.    
    758      1      8    180      0.1000E-01       1000.    
    759      1      8    181      0.1000E-01       1000.    
    760      1      8    182      0.1000E-01       1000.    
    761      1      8    183      0.1000E-01       1000.    
    762      1      8    184      0.1000E-01       1000.    
    763      1      8    185      0.1000E-01       1000.    
    764      1      8    186      0.1000E-01       1000.    
    765      1      8    187      0.1000E-01       1000.    
    766      1      8    188      0.1000E-01       1000.    
    767      1      8    189      0.1000E-01       1000.    
    768      1      8    190      0.1000E-01       1000.    
    769      1      8    191      0.1000E-01       1000.    
    770      1      8    192      0.1000E-01       1000.    
    771      1      8    193      0.1000E-01       1000.    
    772      1      8    194      0.1000E-01       1000.    
    773      1      8    195      0.1000E-01       1000.    
    774      1      8    196      0.1000E-01       1000.    
    775      1      8    197      0.1000E-01       1000.    
    776      1      8    198      0.1000E-01       1000.    
    777      1      8    199      0.1000E-01       1000.    
    778      1      9     85      0.1000E-01       1000.    
    779      1      9     86      0.1000E-01       1000.    
    780      1      9     87      0.1000E-01       1000.    
    781      1      9     88      0.1000E-01       1000.    
    782      1      9     89      0.1000E-01       1000.    
    783      1      9     90      0.1000E-01       1000.    
    784      1      9     91      0.1000E-01       1000.    
    785      1      9     92      0.1000E-01       1000.    
    786      1      9     93      0.1000E-01       1000.    
    787      1      9     94      0.1000E-01       1000.    
    788      1      9     95      0.1000E-01       1000.    
    789      1      9     96      0.1000E-01       1000.    
    790      1      9     97      0.1000E-01       1000.    
    791      1      9     98      0.1000E-01       1000.    
    792      1      9     99      0.1000E-01       1000.    
    793      1      9    100      0.1000E-01       1000.    
    794      1      9    101      0.1000E-01       1000.    
    795      1      9    102      0.1000E-01       1000.    
    796      1      9    103      0.1000E-01       1000.    
    797      1      9    104      0.1000E-01       1000.    
    798      1      9    105      0.1000E-01       1000.    
    799      1      9    106      0.1000E-01       1000.    
    800      1      9    107      0.1000E-01       1000.    
    801      1      9    108      0.1000E-01       1000.    
    802      1      9    109      0.1000E-01       1000.    
    803      1      9    110      0.1000E-01       1000.    
    804      1      9    111      0.1000E-01       1000.    
    805      1      9    112      0.1000E-01       1000.    
    806      1      9    113      0.1000E-01       1000.    
    807      1      9    114      0.1000E-01       1000.    
    808      1      9    115      0.1000E-01       1000.    
    809      1      9    120      0.1000E-01       1000.    
    810      1      9    121      0.1000E-01       1000.    
    811      1      9    122      0.1000E-01       1000.    
    812      1      9    123      0.1000E-01       1000.    
    813      1      9    124      0.1000E-01       1000.    
    814      1      9    125      0.1000E-01       1000.    
    815      1      9    126      0.1000E-01       1000.    
    816      1      9    127      0.1000E-01       1000.    
    817      1      9    128      0.1000E-01       1000.    
    818      1      9    129      0.1000E-01       1000.    
    819      1      9    130      0.1000E-01       1000.    
    820      1      9    131      0.1000E-01       1000.    
    821      1      9    132      0.1000E-01       1000.    
    822      1      9    133      0.1000E-01       1000.    
    823      1      9    134      0.1000E-01       1000.    
    824      1      9    135      0.1000E-01       1000.    
    825      1      9    136      0.1000E-01       1000.    
    826      1      9    137      0.1000E-01       1000.    
    827      1      9    138      0.1000E-01       1000.    
    828      1      9    139      0.1000E-01       1000.    
    829      1      9    140      0.1000E-01       1000.    
    830      1      9    141      0.1000E-01       1000.    
    831      1      9    142      0.1000E-01       1000.    
    832      1      9    143      0.1000E-01       1000.    
    833      1      9    144      0.1000E-01       1000.    
    834      1      9    145      0.1000E-01       1000.    
    835      1      9    146      0.1000E-01       1000.    
    836      1      9    147      0.1000E-01       1000.    
    837      1      9    148      0.1000E-01       1000.    
    838      1      9    149      0.1000E-01       1000.    
    839      1      9    150      0.1000E-01       1000.    
    840      1      9    151      0.1000E-01       1000.    
    841      1      9    152      0.1000E-01       1000.    
    842      1      9    153      0.1000E-01       1000.    
    843      1      9    154      0.1000E-01       1000.    
    844      1      9    155      0.1000E-01       1000.    
    845      1      9    156      0.1000E-01       1000.    
    846      1      9    157      0.1000E-01       1000.    
    847      1      9    158      0.1000E-01       1000.    
    848      1      9    159      0.1000E-01       1000.    
    849      1      9    160      0.1000E-01       1000.    
    850      1      9    161      0.1000E-01       1000.    
    851      1      9    162      0.1000E-01       1000.    
    852      1      9    163      0.1000E-01       1000.    
    853      1      9    164      0.1000E-01       1000.    
    854      1      9    165      0.1000E-01       1000.    
    855      1      9    166      0.1000E-01       1000.    
    856      1      9    167      0.1000E-01       1000.    
    857      1      9    168      0.1000E-01       1000.    
    858      1      9    169      0.1000E-01       1000.    
    859      1      9    170      0.1000E-01       1000.    
    860      1      9    171      0.1000E-01       1000.    
    861      1      9    172      0.1000E-01       1000.    
    862      1      9    173      0.1000E-01       1000.    
    863      1      9    174      0.1000E-01       1000.    
    864      1      9    175      0.1000E-01       1000.    
    865      1      9    176      0.1000E-01       1000.    
    866      1      9    177      0.1000E-01       1000.    
    867      1      9    178      0.1000E-01       1000.    
    868      1      9    179      0.1000E-01       1000.    
    869      1      9    180      0.1000E-01       1000.    
    870      1      9    181      0.1000E-01       1000.    
    871      1      9    182      0.1000E-01       1000.    
    872      1      9    183      0.1000E-01       1000.    
    873      1      9    184      0.1000E-01       1000.    
    874      1      9    185      0.1000E-01       1000.    
    875      1      9    186      0.1000E-01       1000.    
    876      1      9    187      0.1000E-01       1000.    
    877      1      9    188      0.1000E-01       1000.    
    878      1      9    189      0.1000E-01       1000.    
    879      1      9    190      0.1000E-01       1000.    
    880      1      9    191      0.1000E-01       1000.    
    881      1      9    192      0.1000E-01       1000.    
    882      1      9    193      0.1000E-01       1000.    
    883      1      9    194      0.1000E-01       1000.    
    884      1      9    195      0.1000E-01       1000.    
    885      1      9    196      0.1000E-01       1000.    
    886      1      9    197      0.1000E-01       1000.    
    887      1      9    198      0.1000E-01       1000.    
    888      1      9    199      0.1000E-01       1000.    
    889      1     10     84      0.1000E-01       1000.    
    890      1     10     85      0.1000E-01       1000.    
    891      1     10     86      0.1000E-01       1000.    
    892      1     10     87      0.1000E-01       1000.    
    893      1     10     88      0.1000E-01       1000.    
    894      1     10     89      0.1000E-01       1000.    
    895      1     10     90      0.1000E-01       1000.    
    896      1     10     91      0.1000E-01       1000.    
    897      1     10     92      0.1000E-01       1000.    
    898      1     10     93      0.1000E-01       1000.    
    899      1     10     94      0.1000E-01       1000.    
    900      1     10     95      0.1000E-01       1000.    
    901      1     10     96      0.1000E-01       1000.    
    902      1     10     97      0.1000E-01       1000.    
    903      1     10     98      0.1000E-01       1000.    
    904      1     10     99      0.1000E-01       1000.    
    905      1     10    100      0.1000E-01       1000.    
    906      1     10    101      0.1000E-01       1000.    
    907      1     10    102      0.1000E-01       1000.    
    908      1     10    103      0.1000E-01       1000.    
    909      1     10    104      0.1000E-01       1000.    
    910      1     10    105      0.1000E-01       1000.    
    911      1     10    106      0.1000E-01       1000.    
    912      1     10    107      0.1000E-01       1000.    
    913      1     10    108      0.1000E-01       1000.    
    914      1     10    109      0.1000E-01       1000.    
    915      1     10    110      0.1000E-01       1000.    
    916      1     10    111      0.1000E-01       1000.    
    917      1     10    112      0.1000E-01       1000.    
    918      1     10    114      0.1000E-01       1000.    
    919      1     10    120      0.1000E-01       1000.    
    920      1     10    121      0.1000E-01       1000.    
    921      1     10    122      0.1000E-01       1000.    
    922      1     10    123      0.1000E-01       1000.    
    923      1     10    124      0.1000E-01       1000.    
    924      1     10    125      0.1000E-01       1000.    
    925      1     10    126      0.1000E-01       1000.    
    926      1     10    127      0.1000E-01       1000.    
    927      1     10    128      0.1000E-01       1000.    
    928      1     10    129      0.1000E-01       1000.    
    929      1     10    130      0.1000E-01       1000.    
    930      1     10    131      0.1000E-01       1000.    
    931      1     10    132      0.1000E-01       1000.    
    932      1     10    133      0.1000E-01       1000.    
    933      1     10    134      0.1000E-01       1000.    
    934      1     10    135      0.1000E-01       1000.    
    935      1     10    136      0.1000E-01       1000.    
    936      1     10    137      0.1000E-01       1000.    
    937      1     10    138      0.1000E-01       1000.    
    938      1     10    139      0.1000E-01       1000.    
    939      1     10    140      0.1000E-01       1000.    
    940      1     10    141      0.1000E-01       1000.    
[...]



                      VOLUMETRIC SWI ZONE BUDGET FOR ENTIRE MODEL
                     AT END OF TIME STEP  380 IN STRESS PERIOD   1
                                      ZONE     2
  -----------------------------------------------------------------------------------

        CUMULATIVE VOLUMES      L**3       RATES FOR THIS TIME STEP      L**3/T
        ------------------                 ------------------------

              IN:                                      IN:
              ---                                      ---
             BOUNDARIES = 68577067008.0000            BOUNDARIES =        1084.8779
          CONSTANT HEAD =           0.0000         CONSTANT HEAD =           0.0000
            ZONE CHANGE = 33865916416.0000           ZONE CHANGE =       82926.3203
       ZONE CHG TIP/TOE =     1827782.0000      ZONE CHG TIP/TOE =           0.0000
            ZONE MIXING =           0.0000           ZONE MIXING =           0.0000

               TOTAL IN =102444810240.0000              TOTAL IN =       84011.1953

             OUT:                                     OUT:
             ----                                     ----
             BOUNDARIES =102444744704.0000            BOUNDARIES =       84012.9766
          CONSTANT HEAD =           0.0000         CONSTANT HEAD =           0.0000
            ZONE CHANGE =       12315.8438           ZONE CHANGE =           0.0000
       ZONE CHG TIP/TOE =     2396341.5000      ZONE CHG TIP/TOE =           0.0000
            ZONE MIXING =           0.0000           ZONE MIXING =           0.0000

              TOTAL OUT =102447161344.0000             TOTAL OUT =       84012.9766

               IN - OUT =    -2351104.0000              IN - OUT =          -1.7812

    PERCENT DISCREPANCY =          -0.00     PERCENT DISCREPANCY =          -0.00


 HEAD WILL BE SAVED ON UNIT   51 AT END OF TIME STEP  380, STRESS PERIOD    1
1
  VOLUMETRIC BUDGET FOR ENTIRE MODEL AT END OF TIME STEP  380, STRESS PERIOD   1
  ------------------------------------------------------------------------------

     CUMULATIVE VOLUMES      L**3       RATES FOR THIS TIME STEP      L**3/T
     ------------------                 ------------------------

           IN:                                      IN:
           ---                                      ---
             STORAGE =           0.0000               STORAGE =           0.0000
       CONSTANT HEAD =           0.0000         CONSTANT HEAD =           0.0000
          SWIADDTOCH =           0.0000            SWIADDTOCH =           0.0000
     HEAD DEP BOUNDS = 68350017536.0000       HEAD DEP BOUNDS =           0.0000
            RECHARGE =115584425984.0000              RECHARGE =      832773.5625

            TOTAL IN =183934451712.0000              TOTAL IN =      832773.5625

          OUT:                                     OUT:
          ----                                     ----
             STORAGE =           0.0000               STORAGE =           0.0000
       CONSTANT HEAD =           0.0000         CONSTANT HEAD =           0.0000
          SWIADDTOCH =           0.0000            SWIADDTOCH =           0.0000
     HEAD DEP BOUNDS =183934353408.0000       HEAD DEP BOUNDS =      832773.6875
            RECHARGE =           0.0000              RECHARGE =           0.0000

           TOTAL OUT =183934353408.0000             TOTAL OUT =      832773.6875

            IN - OUT =       98304.0000              IN - OUT =          -0.1250

 PERCENT DISCREPANCY =           0.00     PERCENT DISCREPANCY =          -0.00






         TIME SUMMARY AT END OF TIME STEP  380 IN STRESS PERIOD    1
                    SECONDS     MINUTES      HOURS       DAYS        YEARS
                    -----------------------------------------------------------
   TIME STEP LENGTH 3.15576E+07 5.25960E+05  8766.0      365.25      1.0000    
 STRESS PERIOD TIME 1.19919E+10 1.99865E+08 3.33108E+06 1.38795E+05  380.00    
         TOTAL TIME 1.19919E+10 1.99865E+08 3.33108E+06 1.38795E+05  380.00    
1
 
 SOLVING FOR HEAD 

 NO OUTPUT CONTROL FOR STRESS PERIOD    1   TIME STEP  381
 SOLVING FOR ZETA FOR LAYER     1 ZONE     2
 STRESS PERIOD=  1 TIMESTEP=381 LAYER=  1 ZONE=  2 ACTIVE CELLS=12727 NUMBER OF EQUATIONS=   12727
 
 SOLVING FOR HEAD 

 NO OUTPUT CONTROL FOR STRESS PERIOD    1   TIME STEP  382
 SOLVING FOR ZETA FOR LAYER     1 ZONE     2
 STRESS PERIOD=  1 TIMESTEP=382 LAYER=  1 ZONE=  2 ACTIVE CELLS=12727 NUMBER OF EQUATIONS=   12727
 
 SOLVING FOR HEAD 

 NO OUTPUT CONTROL FOR STRESS PERIOD    1   TIME STEP  383
 SOLVING FOR ZETA FOR LAYER     1 ZONE     2
 STRESS PERIOD=  1 TIMESTEP=383 LAYER=  1 ZONE=  2 ACTIVE CELLS=12727 NUMBER OF EQUATIONS=   12727
 
 SOLVING FOR HEAD 

 NO OUTPUT CONTROL FOR STRESS PERIOD    1   TIME STEP  384
 SOLVING FOR ZETA FOR LAYER     1 ZONE     2
 STRESS PERIOD=  1 TIMESTEP=384 LAYER=  1 ZONE=  2 ACTIVE CELLS=12727 NUMBER OF EQUATIONS=   12727
 
 SOLVING FOR HEAD 

 NO OUTPUT CONTROL FOR STRESS PERIOD    1   TIME STEP  385
 SOLVING FOR ZETA FOR LAYER     1 ZONE     2
 STRESS PERIOD=  1 TIMESTEP=385 LAYER=  1 ZONE=  2 ACTIVE CELLS=12727 NUMBER OF EQUATIONS=   12727
 
 SOLVING FOR HEAD 

 NO OUTPUT CONTROL FOR STRESS PERIOD    1   TIME STEP  386
 SOLVING FOR ZETA FOR LAYER     1 ZONE     2
 STRESS PERIOD=  1 TIMESTEP=386 LAYER=  1 ZONE=  2 ACTIVE CELLS=12727 NUMBER OF EQUATIONS=   12727
 
 SOLVING FOR HEAD 

 NO OUTPUT CONTROL FOR STRESS PERIOD    1   TIME STEP  387
 SOLVING FOR ZETA FOR LAYER     1 ZONE     2
 STRESS PERIOD=  1 TIMESTEP=387 LAYER=  1 ZONE=  2 ACTIVE CELLS=12727 NUMBER OF EQUATIONS=   12727
 
 SOLVING FOR HEAD 

 NO OUTPUT CONTROL FOR STRESS PERIOD    1   TIME STEP  388
 SOLVING FOR ZETA FOR LAYER     1 ZONE     2

    6366 UPPER PART EQS.      6362 LOWER PART EQS.    BAND WIDTH + 1 =   99
 STRESS PERIOD=  1 TIMESTEP=388 LAYER=  1 ZONE=  2 ACTIVE CELLS=12728 NUMBER OF EQUATIONS=   12728
 
 SOLVING FOR HEAD 

 NO OUTPUT CONTROL FOR STRESS PERIOD    1   TIME STEP  389
 SOLVING FOR ZETA FOR LAYER     1 ZONE     2
 STRESS PERIOD=  1 TIMESTEP=389 LAYER=  1 ZONE=  2 ACTIVE CELLS=12728 NUMBER OF EQUATIONS=   12728
 
 SOLVING FOR HEAD 

 NO OUTPUT CONTROL FOR STRESS PERIOD    1   TIME STEP  390
 SOLVING FOR ZETA FOR LAYER     1 ZONE     2
 STRESS PERIOD=  1 TIMESTEP=390 LAYER=  1 ZONE=  2 ACTIVE CELLS=12728 NUMBER OF EQUATIONS=   12728
 
 SOLVING FOR HEAD 

 NO OUTPUT CONTROL FOR STRESS PERIOD    1   TIME STEP  391
 SOLVING FOR ZETA FOR LAYER     1 ZONE     2
 STRESS PERIOD=  1 TIMESTEP=391 LAYER=  1 ZONE=  2 ACTIVE CELLS=12728 NUMBER OF EQUATIONS=   12728
 
 SOLVING FOR HEAD 

 NO OUTPUT CONTROL FOR STRESS PERIOD    1   TIME STEP  392
 SOLVING FOR ZETA FOR LAYER     1 ZONE     2

    6366 UPPER PART EQS.      6363 LOWER PART EQS.    BAND WIDTH + 1 =   99
 STRESS PERIOD=  1 TIMESTEP=392 LAYER=  1 ZONE=  2 ACTIVE CELLS=12729 NUMBER OF EQUATIONS=   12729
 
 SOLVING FOR HEAD 

 NO OUTPUT CONTROL FOR STRESS PERIOD    1   TIME STEP  393
 SOLVING FOR ZETA FOR LAYER     1 ZONE     2
 STRESS PERIOD=  1 TIMESTEP=393 LAYER=  1 ZONE=  2 ACTIVE CELLS=12729 NUMBER OF EQUATIONS=   12729
 
 SOLVING FOR HEAD 

 NO OUTPUT CONTROL FOR STRESS PERIOD    1   TIME STEP  394
 SOLVING FOR ZETA FOR LAYER     1 ZONE     2
 STRESS PERIOD=  1 TIMESTEP=394 LAYER=  1 ZONE=  2 ACTIVE CELLS=12729 NUMBER OF EQUATIONS=   12729
 
 SOLVING FOR HEAD 

 NO OUTPUT CONTROL FOR STRESS PERIOD    1   TIME STEP  395
 SOLVING FOR ZETA FOR LAYER     1 ZONE     2

    6367 UPPER PART EQS.      6363 LOWER PART EQS.    BAND WIDTH + 1 =   99
 STRESS PERIOD=  1 TIMESTEP=395 LAYER=  1 ZONE=  2 ACTIVE CELLS=12730 NUMBER OF EQUATIONS=   12730
 
 SOLVING FOR HEAD 

 NO OUTPUT CONTROL FOR STRESS PERIOD    1   TIME STEP  396
 SOLVING FOR ZETA FOR LAYER     1 ZONE     2
 STRESS PERIOD=  1 TIMESTEP=396 LAYER=  1 ZONE=  2 ACTIVE CELLS=12730 NUMBER OF EQUATIONS=   12730
 
 SOLVING FOR HEAD 

 NO OUTPUT CONTROL FOR STRESS PERIOD    1   TIME STEP  397
 SOLVING FOR ZETA FOR LAYER     1 ZONE     2
 STRESS PERIOD=  1 TIMESTEP=397 LAYER=  1 ZONE=  2 ACTIVE CELLS=12730 NUMBER OF EQUATIONS=   12730
 
 SOLVING FOR HEAD 

 NO OUTPUT CONTROL FOR STRESS PERIOD    1   TIME STEP  398
 SOLVING FOR ZETA FOR LAYER     1 ZONE     2
 STRESS PERIOD=  1 TIMESTEP=398 LAYER=  1 ZONE=  2 ACTIVE CELLS=12730 NUMBER OF EQUATIONS=   12730
 
 SOLVING FOR HEAD 

 NO OUTPUT CONTROL FOR STRESS PERIOD    1   TIME STEP  399
 SOLVING FOR ZETA FOR LAYER     1 ZONE     2
 STRESS PERIOD=  1 TIMESTEP=399 LAYER=  1 ZONE=  2 ACTIVE CELLS=12730 NUMBER OF EQUATIONS=   12730
 
 SOLVING FOR HEAD 

 OUTPUT CONTROL FOR STRESS PERIOD    1   TIME STEP  400
    SAVE HEAD FOR ALL LAYERS
    PRINT BUDGET
 SOLVING FOR ZETA FOR LAYER     1 ZONE     2
 STRESS PERIOD=  1 TIMESTEP=400 LAYER=  1 ZONE=  2 ACTIVE CELLS=12730 NUMBER OF EQUATIONS=   12730
 UBUDSV SAVING "      ZETASRF  1" ON UNIT 55 AT TIME STEP400, STRESS PERIOD    1


                      VOLUMETRIC SWI ZONE BUDGET FOR ENTIRE MODEL
                     AT END OF TIME STEP  400 IN STRESS PERIOD   1
                                      ZONE     1
  -----------------------------------------------------------------------------------

        CUMULATIVE VOLUMES      L**3       RATES FOR THIS TIME STEP      L**3/T
        ------------------                 ------------------------

              IN:                                      IN:
              ---                                      ---
             BOUNDARIES =120195096576.0000            BOUNDARIES =      822695.3750
          CONSTANT HEAD =           0.0000         CONSTANT HEAD =           0.0000
            ZONE CHANGE =       12315.8438           ZONE CHANGE =           0.0000
       ZONE CHG TIP/TOE =     2397042.5000      ZONE CHG TIP/TOE =           0.0000
            ZONE MIXING =           0.0000           ZONE MIXING =           0.0000

               TOTAL IN =120197513216.0000              TOTAL IN =      822695.3750

             OUT:                                     OUT:
             ----                                     ----
             BOUNDARIES = 85749194752.0000            BOUNDARIES =      746986.4375
          CONSTANT HEAD =           0.0000         CONSTANT HEAD =           0.0000
            ZONE CHANGE = 34443493376.0000           ZONE CHANGE =       75708.1797
       ZONE CHG TIP/TOE =     1828483.1250      ZONE CHG TIP/TOE =           0.0000
            ZONE MIXING =           0.0000           ZONE MIXING =           0.0000

              TOTAL OUT =120194514944.0000             TOTAL OUT =      822694.6250

               IN - OUT =     2998272.0000              IN - OUT =           0.7500

    PERCENT DISCREPANCY =           0.00     PERCENT DISCREPANCY =           0.00



                      VOLUMETRIC SWI ZONE BUDGET FOR ENTIRE MODEL
                     AT END OF TIME STEP  400 IN STRESS PERIOD   1
                                      ZONE     2
  -----------------------------------------------------------------------------------

        CUMULATIVE VOLUMES      L**3       RATES FOR THIS TIME STEP      L**3/T
        ------------------                 ------------------------

              IN:                                      IN:
              ---                                      ---
             BOUNDARIES = 68584886272.0000            BOUNDARIES =        1058.3325
          CONSTANT HEAD =           0.0000         CONSTANT HEAD =           0.0000
            ZONE CHANGE = 34443493376.0000           ZONE CHANGE =       75708.1797
       ZONE CHG TIP/TOE =     1828483.1250      ZONE CHG TIP/TOE =           0.0000
            ZONE MIXING =           0.0000           ZONE MIXING =           0.0000

               TOTAL IN =103030202368.0000              TOTAL IN =       76766.5156

             OUT:                                     OUT:
             ----                                     ----
             BOUNDARIES =103030161408.0000            BOUNDARIES =       76767.4297
          CONSTANT HEAD =           0.0000         CONSTANT HEAD =           0.0000
            ZONE CHANGE =       12315.8438           ZONE CHANGE =           0.0000
       ZONE CHG TIP/TOE =     2397042.5000      ZONE CHG TIP/TOE =           0.0000
            ZONE MIXING =           0.0000           ZONE MIXING =           0.0000

              TOTAL OUT =103032578048.0000             TOTAL OUT =       76767.4297

               IN - OUT =    -2375680.0000              IN - OUT =          -0.9141

    PERCENT DISCREPANCY =          -0.00     PERCENT DISCREPANCY =          -0.00


 HEAD WILL BE SAVED ON UNIT   51 AT END OF TIME STEP  400, STRESS PERIOD    1
1
  VOLUMETRIC BUDGET FOR ENTIRE MODEL AT END OF TIME STEP  400, STRESS PERIOD   1
  ------------------------------------------------------------------------------

     CUMULATIVE VOLUMES      L**3       RATES FOR THIS TIME STEP      L**3/T
     ------------------                 ------------------------

           IN:                                      IN:
           ---                                      ---
             STORAGE =           0.0000               STORAGE =           0.0000
       CONSTANT HEAD =           0.0000         CONSTANT HEAD =           0.0000
          SWIADDTOCH =           0.0000            SWIADDTOCH =           0.0000
     HEAD DEP BOUNDS = 68350017536.0000       HEAD DEP BOUNDS =           0.0000
            RECHARGE =121667805184.0000              RECHARGE =      832773.5625

            TOTAL IN =190017830912.0000              TOTAL IN =      832773.5625

          OUT:                                     OUT:
          ----                                     ----
             STORAGE =           0.0000               STORAGE =           0.0000
       CONSTANT HEAD =           0.0000         CONSTANT HEAD =           0.0000
          SWIADDTOCH =           0.0000            SWIADDTOCH =           0.0000
     HEAD DEP BOUNDS =190017732608.0000       HEAD DEP BOUNDS =      832773.6875
            RECHARGE =           0.0000              RECHARGE =           0.0000

           TOTAL OUT =190017732608.0000             TOTAL OUT =      832773.6875

            IN - OUT =       98304.0000              IN - OUT =          -0.1250

 PERCENT DISCREPANCY =           0.00     PERCENT DISCREPANCY =          -0.00






         TIME SUMMARY AT END OF TIME STEP  400 IN STRESS PERIOD    1
                    SECONDS     MINUTES      HOURS       DAYS        YEARS
                    -----------------------------------------------------------
   TIME STEP LENGTH 3.15576E+07 5.25960E+05  8766.0      365.25      1.0000    
 STRESS PERIOD TIME 1.26230E+10 2.10384E+08 3.50640E+06 1.46100E+05  400.00    
         TOTAL TIME 1.26230E+10 2.10384E+08 3.50640E+06 1.46100E+05  400.00    
1

 HEAD AND DRAWDOWN OBSERVATIONS
 OBSERVATION       OBSERVED           SIMULATED
   NAME              VALUE              VALUE             DIFFERENCE
 --------------------------------------------------------------------
 Obs_0           5.5000000000        1.3143715858        4.1856284142    
 Obs_1          0.20000000298       -1.4983366728        1.6983367205    
 Obs_2          0.40000000596       -1.5372881889        1.9372881651    
 Obs_3          0.30000001192       -1.6856613159        1.9856612682    
 Obs_4          0.60000002384       -1.6433055401        2.2433056831    
 Obs_5           2.2999999523       -1.3047964573        3.6047964096    
 Obs_6           2.5999999046       -1.3634139299        3.9634137154    
 Obs_7           3.5000000000      -0.62261754274        4.1226177216    
 Obs_8           1.2000000477       -1.3908089399        2.5908088684    
 Obs_9           3.5999999046       0.51788520813        3.0821146965    
 Obs_10          1.5000000000       -1.3262045383        2.8262045383    
 Obs_11          1.8999999762      -0.57092827559        2.4709281921    
 Obs_12          1.2999999523       0.85222774744       0.44777220488    
 Obs_13         0.89999997616      -0.62464851141        1.5246484280    
 Obs_14          44.700000763        2.2923393250        42.407661438    
 Obs_15          2.5999999046      -0.67920792103        3.2792077065    
 Obs_16          1.7000000477      -0.74169778824        2.4416978359    
 Obs_17          3.0000000000        1.7590568066        1.2409431934    
 Obs_18          1.7999999523      -0.77060675621        2.5706067085    
 Obs_19          5.9000000954        4.9682140350       0.93178606033    
 Obs_20          19.200000763        1.8049745560        17.395027161    
 Obs_21          8.0000000000        6.2969741821        1.7030258179    
 Obs_22          8.1999998093        2.5664274693        5.6335725784    
 Obs_23          5.7500000000        1.8970845938        3.8529152870    
 Obs_24          34.200000763        6.2832708359        27.916728973    
 Obs_25          3.2000000477        1.5992451906        1.6007548571    
 Obs_26          16.500000000        7.2494821548        9.2505178452    
 Obs_27          25.399999619        3.5648040771        21.835195541    
 Obs_28          1.7999999523        1.3990013599       0.40099859238    
 Obs_29          8.8000001907        1.4049118757        7.3950881958    
 Obs_30         0.85000002384       0.62722480297       0.22277522087    
 Obs_31         0.89999997616       0.49624371529       0.40375626087    
 Obs_32         0.60000002384       -2.1496684551        2.7496685982    
 Obs_33          20.299999237        3.9284579754        16.371541977    
 Obs_34          1.7999999523       0.66538763046        1.1346123219    
 Obs_35          1.9333000183       0.43078133464        1.5025186539    
 Obs_36         0.30000001192      -0.64061343670       0.94061344862    
 Obs_37         0.50000000000       -2.0862722397        2.5862722397    
 Obs_38          1.0000000000      -0.80610555410        1.8061056137    
 Obs_39          62.500000000        8.4761676788        54.023834229    
 Obs_40          15.800000191        1.3867409229        14.413259506    
 Obs_41          1.2000000477        4.1683106422       -2.9683105946    
 Obs_42          7.3000001907        4.8968367577        2.4031634331    
 Obs_43          7.3000001907        5.6479921341        1.6520080566    
 Obs_44          9.8000001907        6.2483143806        3.5516858101    
 Obs_45          16.466699600        6.9620170593        9.5046825409    
 Obs_46          1.2000000477        1.9803661108      -0.78036606312    
 Obs_47          3.0000000000        1.6294319630        1.3705680370    
 Obs_48          6.6500000954        3.3704187870        3.2795813084    
 Obs_49          2.7000000477        2.5493798256       0.15062022209    
 Obs_50          6.0999999046      -5.41377987247E-04    6.1005411148    
 Obs_51         0.10000000149       -1.0644940138        1.1644940376    
 Obs_52          8.1000003815        2.4548449516        5.6451554298    
 Obs_53          8.1999998093        2.4329440594        5.7670555115    
 Obs_54          4.3000001907        3.2949259281        1.0050742626    
 Obs_55          5.5666999817        2.9616127014        2.6050872803    
 Obs_56          5.5000000000        3.6384656429        1.8615343571    
 Obs_57          7.3000001907        1.2709919214        6.0290083885    
 Obs_58          6.0000000000       0.39802458882        5.6019754410    
 Obs_59          2.7000000477      -0.98973113298        3.6897311211    
 Obs_60          5.3000001907       -1.0402101278        6.3402104378    
 Obs_61          3.0999999046      -0.47889122367        3.5788910389    
 Obs_62          3.0000000000      -0.83636635542        3.8363664150    
 Obs_63          5.6999998093       -1.0391572714        6.7391571999    

 HEAD/DRAWDOWN SUM OF SQUARED DIFFERENCE:    7.54645E+03

 Run end date and time (yyyy/mm/dd hh:mm:ss): 2019/08/06 15:08:48
 Elapsed run time: 39.414 Seconds

