                                  MODFLOW-2005     
      U.S. GEOLOGICAL SURVEY MODULAR FINITE-DIFFERENCE GROUND-WATER FLOW MODEL
                            VERSION 1.12.00 2/3/2017

 LIST FILE: modelface.list
                         UNIT    2

 OPENING modelface.dis
 FILE TYPE:DIS   UNIT   11   STATUS:OLD    
 FORMAT:FORMATTED              ACCESS:SEQUENTIAL          

 OPENING modelface.bas
 FILE TYPE:BAS6   UNIT   13   STATUS:OLD    
 FORMAT:FORMATTED              ACCESS:SEQUENTIAL          

 OPENING modelface.lpf
 FILE TYPE:LPF   UNIT   15   STATUS:OLD    
 FORMAT:FORMATTED              ACCESS:SEQUENTIAL          

 OPENING modelface.ghb
 FILE TYPE:GHB   UNIT   23   STATUS:OLD    
 FORMAT:FORMATTED              ACCESS:SEQUENTIAL          

 OPENING modelface.rch
 FILE TYPE:RCH   UNIT   19   STATUS:OLD    
 FORMAT:FORMATTED              ACCESS:SEQUENTIAL          

 OPENING modelface.oc
 FILE TYPE:OC   UNIT   14   STATUS:OLD    
 FORMAT:FORMATTED              ACCESS:SEQUENTIAL          

 OPENING modelface.pcg
 FILE TYPE:PCG   UNIT   27   STATUS:OLD    
 FORMAT:FORMATTED              ACCESS:SEQUENTIAL          

 OPENING modelface.hob
 FILE TYPE:HOB   UNIT   39   STATUS:OLD    
 FORMAT:FORMATTED              ACCESS:SEQUENTIAL          

 OPENING modelface.swi2
 FILE TYPE:SWI2   UNIT   29   STATUS:OLD    
 FORMAT:FORMATTED              ACCESS:SEQUENTIAL          

 OPENING modelface.hds
 FILE TYPE:DATA(BINARY)   UNIT   51   STATUS:REPLACE
 FORMAT:BINARY                 ACCESS:SEQUENTIAL          

 OPENING modelface.hob.out
 FILE TYPE:DATA   UNIT    7   STATUS:UNKNOWN
 FORMAT:FORMATTED              ACCESS:SEQUENTIAL          

 OPENING modelface.zta
 FILE TYPE:DATA(BINARY)   UNIT   55   STATUS:REPLACE
 FORMAT:BINARY                 ACCESS:SEQUENTIAL          

 BAS -- BASIC PACKAGE, VERSION 7, 5/2/2005 INPUT READ FROM UNIT   13
 
 MODFLOW was compiled using mixed precision
 Precision of REAL variables:           6
 Precision of DOUBLE PRECISION variables:          15

 DISCRETIZATION INPUT DATA READ FROM UNIT   11
 # DIS package for  MODFLOW-2005, generated by Flopy.
    1 LAYERS       100 ROWS       200 COLUMNS
    3 STRESS PERIOD(S) IN SIMULATION
 MODEL TIME UNIT IS DAYS
 MODEL LENGTH UNIT IS METERS
  Confining bed flag for each layer:
   0

                     DELR =   169.000    

                     DELC =   165.000    

 TOP ELEVATION OF LAYER 1 =   100.000    

   MODEL LAYER BOTTOM EL. =  -1000.00     FOR LAYER   1


 STRESS PERIOD     LENGTH       TIME STEPS     MULTIPLIER FOR DELT    SS FLAG
 ----------------------------------------------------------------------------
        1         73050.00       1000                    1.000         SS
        2         4383.000        120                    1.000         SS
        3         6574.500        180                    1.000         SS

 STEADY-STATE SIMULATION



 
 # BAS6 package for  MODFLOW-2005, generated by Flopy.                           
 THE FREE FORMAT OPTION HAS BEEN SELECTED



                     BOUNDARY ARRAY FOR LAYER   1
 READING ON UNIT   13 WITH FORMAT: (200I10)            

 AQUIFER HEAD WILL BE SET TO  -999.99     AT ALL NO-FLOW NODES (IBOUND=0).



                       INITIAL HEAD FOR LAYER   1
 READING ON UNIT   13 WITH FORMAT: (200E15.6)          
 # OC package for  MODFLOW-2005, generated by Flopy.

 OUTPUT CONTROL IS SPECIFIED ONLY AT TIME STEPS FOR WHICH OUTPUT IS DESIRED
 COMPACT CELL-BY-CELL BUDGET FILES WILL BE WRITTEN
 AUXILIARY DATA WILL BE SAVED IN CELL-BY-CELL BUDGET FILES
 HEAD PRINT FORMAT CODE IS   0    DRAWDOWN PRINT FORMAT CODE IS   0
 HEADS WILL BE SAVED ON UNIT   51    DRAWDOWNS WILL BE SAVED ON UNIT    0

 LPF -- LAYER-PROPERTY FLOW PACKAGE, VERSION 7, 5/2/2005
         INPUT READ FROM UNIT   15
 # LPF package for  MODFLOW-2005, generated by Flopy.
 HEAD AT CELLS THAT CONVERT TO DRY= -1.00000E+30
 No named parameters

   LAYER FLAGS:
 LAYER       LAYTYP        LAYAVG         CHANI        LAYVKA        LAYWET
 ---------------------------------------------------------------------------
    1             0             0     1.000E+00             0             0

   INTERPRETATION OF LAYER FLAGS:
                        INTERBLOCK     HORIZONTAL    DATA IN
         LAYER TYPE   TRANSMISSIVITY   ANISOTROPY   ARRAY VKA   WETTABILITY
 LAYER      (LAYTYP)      (LAYAVG)       (CHANI)      (LAYVKA)      (LAYWET)
 ---------------------------------------------------------------------------
    1      CONFINED      HARMONIC     1.000E+00    VERTICAL K  NON-WETTABLE

 WETTING CAPABILITY IS NOT ACTIVE IN ANY LAYER



              HYD. COND. ALONG ROWS FOR LAYER   1
 READING ON UNIT   15 WITH FORMAT: (200E15.6)          

      VERTICAL HYD. COND. =   300.000     FOR LAYER   1

 GHB -- GENERAL-HEAD BOUNDARY PACKAGE, VERSION 7, 5/2/2005
         INPUT READ FROM UNIT   23
 # GHB package for  MODFLOW-2005, generated by Flopy.
 No named parameters
 MAXIMUM OF   7876 ACTIVE GHB CELLS AT ONE TIME


     0 GHB parameters

 RCH -- RECHARGE PACKAGE, VERSION 7, 5/2/2005 INPUT READ FROM UNIT   19
 # RCH package for  MODFLOW-2005, generated by Flopy.
 No named parameters
 OPTION 3 -- RECHARGE TO HIGHEST ACTIVE NODE IN EACH VERTICAL COLUMN


     0 Recharge parameters

 PCG -- CONJUGATE-GRADIENT SOLUTION PACKAGE, VERSION 7, 5/2/2005
 # PCG package for  MODFLOW-2005, generated by Flopy.
 MAXIMUM OF    100 CALLS OF SOLUTION ROUTINE
 MAXIMUM OF     50 INTERNAL ITERATIONS PER CALL TO SOLUTION ROUTINE
 MATRIX PRECONDITIONING TYPE :    1



                                    SOLUTION BY THE CONJUGATE-GRADIENT METHOD
                                   -------------------------------------------
                    MAXIMUM NUMBER OF CALLS TO PCG ROUTINE =      100
                        MAXIMUM ITERATIONS PER CALL TO PCG =       50
                               MATRIX PRECONDITIONING TYPE =        1
        RELAXATION FACTOR (ONLY USED WITH PRECOND. TYPE 1) =    0.10000E+01
 PARAMETER OF POLYNOMIAL PRECOND. = 2 (2) OR IS CALCULATED :        0
                         HEAD CHANGE CRITERION FOR CLOSURE =    0.10000E-05
                     RESIDUAL CHANGE CRITERION FOR CLOSURE =    0.30000E-02
            PCG HEAD AND RESIDUAL CHANGE PRINTOUT INTERVAL =      999
     PRINTING FROM SOLVER IS LIMITED(1) OR SUPPRESSED (>1) =        3
                            STEADY-STATE DAMPING PARAMETER =    0.10000E+01
                               TRANSIENT DAMPING PARAMETER =    0.10000E+01


 SWI2 -- SWI PACKAGE, VERSION 2.0.0, 07/22/2013
 --------------------------------------------------
 SWI2 INPUT READ FROM UNIT 29


 # SWI2 package for  MODFLOW-2005, generated by Flopy.
 # Dataset 1


 SWI2 DATASET 1
 ----------------------------------------------------
 NUMBER OF SURFACES (NSRF):                         1
 TOTAL NUMBER OF ZONES:                             2
 DENSITY DISTRIBUTION OPTION (ISTRAT):              1
   VARIABLE DENSITY FLOW -- ISTRAT = 0
   STRATIFIED FLOW       -- ISTRAT = 1
 NUMBER OF SWI OBSERVATIONS (NOBS):                 0
 ZETA OUTPUT FILE UNIT NUMBER (ISWIZT):            55
 BUDGET OUTPUT FILE UNIT NUMBER (ISWICB):           0
 OBSERVATION OUTPUT FILE UNIT NUMBER (ISWIOBS):     0
 ----------------------------------------------------
 # Dataset 2a


 SWI2 DATASET 2A
 ----------------------------------------------------
 SOLVER (NSOLVER):                                  1
   SOLVER =                      DIRECT SOLVER (DE4)
 SOLVER PRINTOUT INTERVAL (IPRSOL):               999
 SOLVER OUTPUT FLAG (MUTSOL):                       3
   0 = PRINTING EVERY ITERATION
   1 = LIMITED (TOTAL NUMBER OF ITERATIONS)
   2 = NO PRINTING
   3 = ONLY IF CONVERGENCE FAILS
 ----------------------------------------------------
 # Dataset 3a


 SWI2 DATASET 3A
 ----------------------------------------------------
 MAXIMUM TOE SURFACE SLOPE (TOESLOPE):      0.500E-02
 MAXIMUM TIP SURFACE SLOPE (TIPSLOPE):      0.500E-02
 EXCESS SURFACE SLOPE FRACTION (ALPHA):     0.100    
 MINIMUM ZONE THICKNESS FRACTION (BETA):    0.100    
 ----------------------------------------------------



                             NUZONE
 READING ON UNIT   29 WITH FORMAT: (2E15.6)            



                   ZETA SURFACE  1  FOR LAYER   1
 READING ON UNIT   29 WITH FORMAT: (200E15.6)          

                      SSZ =  0.200000     FOR LAYER   1



                            IZONENR FOR LAYER   1
 READING ON UNIT   29 WITH FORMAT: (200I10)            

 OBS2BAS7 -- HEAD OBSERVATIONS, VERSION 2.0, 2/28/2006
 INPUT READ FROM UNIT  39
 # HOB package for  MODFLOW-2005, generated by Flopy.

 NUMBER OF HEADS....................................:   58
   NUMBER OF MULTILAYER HEADS.......................:    0
   MAXIMUM NUMBER OF LAYERS FOR MULTILAYER HEADS....:    0
 HEAD OBSERVATIONS WILL BE SAVED ON UNIT............:    7
 SIMULATED EQUIVALENT HEAD AT DRY CELLS WILL BE:   -999.000    

 OBSERVED HEAD DATA -- TIME OFFSETS ARE MULTIPLIED BY:   1.0000    

                    REFER.
       OBSERVATION  STRESS    TIME
  OBS#    NAME      PERIOD   OFFSET    OBSERVATION
     1 FLI182           1    0.000       5.500    
 Observation within a steady-state time step has been moved to the end of the time step.
     2 214601           1    0.000      0.2000    
 Observation within a steady-state time step has been moved to the end of the time step.
     3 214602           1    0.000      0.4000    
 Observation within a steady-state time step has been moved to the end of the time step.
     4 Taputimuwind     1    0.000      0.3000    
 Observation within a steady-state time step has been moved to the end of the time step.
     5 214604           1    0.000      0.6000    
 Observation within a steady-state time step has been moved to the end of the time step.
     6 Malaeloa70       1    0.000       2.600    
 Observation within a steady-state time step has been moved to the end of the time step.
     7 MOA15            1    0.000       2.300    
 Observation within a steady-state time step has been moved to the end of the time step.
     8 MOA169           1    0.000       3.500    
 Observation within a steady-state time step has been moved to the end of the time step.
     9 Puapua47         1    0.000       1.200    
 Observation within a steady-state time step has been moved to the end of the time step.
    10 TGH1             1    0.000       3.600    
 Observation within a steady-state time step has been moved to the end of the time step.
    11 Malaeloa92       1    0.000       1.200    
 Observation within a steady-state time step has been moved to the end of the time step.
    12 Malaeloa91       1    0.000       1.800    
 Observation within a steady-state time step has been moved to the end of the time step.
    13 TGH3             1    0.000       1.900    
 Observation within a steady-state time step has been moved to the end of the time step.
    14 PAV177           1    0.000       1.300    
 Observation within a steady-state time step has been moved to the end of the time step.
    15 Iliili79         1    0.000      0.9000    
 Observation within a steady-state time step has been moved to the end of the time step.
    16 Iliili62         1    0.000       2.600    
 Observation within a steady-state time step has been moved to the end of the time step.
    17 MES6             1    0.000       44.70    
 Observation within a steady-state time step has been moved to the end of the time step.
    18 ILI76            1    0.000       1.600    
 Observation within a steady-state time step has been moved to the end of the time step.
    19 Iliili74         1    0.000       1.800    
 Observation within a steady-state time step has been moved to the end of the time step.
    20 194407           1    0.000       3.000    
 Observation within a steady-state time step has been moved to the end of the time step.
    21 Iliili84         1    0.000       1.800    
 Observation within a steady-state time step has been moved to the end of the time step.
    22 MMI3             1    0.000       5.900    
 Observation within a steady-state time step has been moved to the end of the time step.
    23 Malaeimi109      1    0.000       8.200    
 Observation within a steady-state time step has been moved to the end of the time step.
    24 Malaeimi89       1    0.000       6.000    
 Observation within a steady-state time step has been moved to the end of the time step.
    25 Malaeimi67       1    0.000       3.200    
 Observation within a steady-state time step has been moved to the end of the time step.
    26 MMI4             1    0.000       16.50    
 Observation within a steady-state time step has been moved to the end of the time step.
    27 194409           1    0.000       25.40    
 Observation within a steady-state time step has been moved to the end of the time step.
    28 214301           1    0.000      0.6000    
 Observation within a steady-state time step has been moved to the end of the time step.
    29 MMI1             1    0.000       20.30    
 Observation within a steady-state time step has been moved to the end of the time step.
    30 TAF72            1    0.000       1.800    
 Observation within a steady-state time step has been moved to the end of the time step.
    31 204301           1    0.000      0.3000    
 Observation within a steady-state time step has been moved to the end of the time step.
    32 204302           1    0.000      0.5000    
 Observation within a steady-state time step has been moved to the end of the time step.
    33 194302           1    0.000       1.000    
 Observation within a steady-state time step has been moved to the end of the time step.
    34 VAI183           1    0.000       62.50    
 Observation within a steady-state time step has been moved to the end of the time step.
    35 NUULI24B         1    0.000       15.80    
 Observation within a steady-state time step has been moved to the end of the time step.
    36 Pago100(wate     1    0.000       1.200    
 Observation within a steady-state time step has been moved to the end of the time step.
    37 PAGO163          1    0.000       7.300    
 Observation within a steady-state time step has been moved to the end of the time step.
    38 PAGOTANK24       1    0.000       1.200    
 Observation within a steady-state time step has been moved to the end of the time step.
    39 Pagoplaza12      1    0.000       3.000    
 Observation within a steady-state time step has been moved to the end of the time step.
    40 FALU179          1    0.000       2.700    
 Observation within a steady-state time step has been moved to the end of the time step.
    41 174101           1    0.000       6.100    
 Observation within a steady-state time step has been moved to the end of the time step.
    42 UTULEI3          1    0.000      0.1000    
 Observation within a steady-state time step has been moved to the end of the time step.
    43 Sailele130       1    0.000       2.700    
 Observation within a steady-state time step has been moved to the end of the time step.
    44 163502           1    0.000       5.300    
 Observation within a steady-state time step has been moved to the end of the time step.
    45 163301           1    0.000       5.700    
 Observation within a steady-state time step has been moved to the end of the time step.
    46 MALAEIMI88       1    0.000       12.35    
 Observation within a steady-state time step has been moved to the end of the time step.
    47 MMI2             1    0.000       21.10    
 Observation within a steady-state time step has been moved to the end of the time step.
    48 Malaeimi69       1    0.000       5.300    
 Observation within a steady-state time step has been moved to the end of the time step.
    49 194311           1    0.000      0.8750    
 Observation within a steady-state time step has been moved to the end of the time step.
    50 194304           1    0.000       1.933    
 Observation within a steady-state time step has been moved to the end of the time step.
    51 164204           1    0.000       9.175    
 Observation within a steady-state time step has been moved to the end of the time step.
    52 Pago107          1    0.000       16.47    
 Observation within a steady-state time step has been moved to the end of the time step.
    53 Fagatogo102      1    0.000       6.650    
 Observation within a steady-state time step has been moved to the end of the time step.
    54 VATI170          1    0.000       8.150    
 Observation within a steady-state time step has been moved to the end of the time step.
    55 163903           1    0.000       5.567    
 Observation within a steady-state time step has been moved to the end of the time step.
    56 AUA98            1    0.000       4.900    
 Observation within a steady-state time step has been moved to the end of the time step.
    57 LAU96            1    0.000       6.650    
 Observation within a steady-state time step has been moved to the end of the time step.
    58 153401           1    0.000       3.050    
 Observation within a steady-state time step has been moved to the end of the time step.

                                                     HEAD CHANGE
                                                      REFERENCE
        OBSERVATION                   ROW     COL    OBSERVATION
  OBS#     NAME       LAY  ROW  COL  OFFSET  OFFSET   (IF > 0)
     1  FLI182          1   42   12   0.000   0.000        0
     2  214601          1   59   26   0.000   0.000        0
     3  214602          1   61   27   0.000   0.000        0
     4  Taputimuwind    1   65   27   0.000   0.000        0
     5  214604          1   64   27   0.000   0.000        0
     6  Malaeloa70      1   56   28   0.000   0.000        0
     7  MOA15           1   53   28   0.000   0.000        0
     8  MOA169          1   53   29   0.000   0.000        0
     9  Puapua47        1   58   29   0.000   0.000        0
    10  TGH1            1   53   30   0.000   0.000        0
    11  Malaeloa92      1   58   30   0.000   0.000        0
    12  Malaeloa91      1   57   31   0.000   0.000        0
    13  TGH3            1   60   35   0.000   0.000        0
    14  PAV177          1   54   36   0.000   0.000        0
    15  Iliili79        1   59   36   0.000   0.000        0
    16  Iliili62        1   60   36   0.000   0.000        0
    17  MES6            1   48   37   0.000   0.000        0
    18  ILI76           1   59   37   0.000   0.000        0
    19  Iliili74        1   60   37   0.000   0.000        0
    20  194407          1   47   38   0.000   0.000        0
    21  Iliili84        1   59   38   0.000   0.000        0
    22  MMI3            1   43   39   0.000   0.000        0
    23  Malaeimi109     1   44   39   0.000   0.000        0
    24  Malaeimi89      1   45   40   0.000   0.000        0
    25  Malaeimi67      1   46   40   0.000   0.000        0
    26  MMI4            1   40   41   0.000   0.000        0
    27  194409          1   43   41   0.000   0.000        0
    28  214301          1   63   41   0.000   0.000        0
    29  MMI1            1   42   42   0.000   0.000        0
    30  TAF72           1   47   42   0.000   0.000        0
    31  204301          1   51   43   0.000   0.000        0
    32  204302          1   57   44   0.000   0.000        0
    33  194302          1   47   45   0.000   0.000        0
    34  VAI183          1   27   49   0.000   0.000        0
    35  NUULI24B        1   38   49   0.000   0.000        0
    36  Pago100(wate    1   22   50   0.000   0.000        0
    37  PAGO163         1   23   50   0.000   0.000        0
    38  PAGOTANK24      1   21   50   0.000   0.000        0
    39  Pagoplaza12     1   22   51   0.000   0.000        0
    40  FALU179         1   32   56   0.000   0.000        0
    41  174101          1   31   57   0.000   0.000        0
    42  UTULEI3         1   26   57   0.000   0.000        0
    43  Sailele130      1   15   85   0.000   0.000        0
    44  163502          1   23   87   0.000   0.000        0
    45  163301          1   18   94   0.000   0.000        0
    46  MALAEIMI88      1   45   39   0.000   0.000        0
    47  MMI2            1   41   40   0.000   0.000        0
    48  Malaeimi69      1   45   41   0.000   0.000        0
    49  194311          1   49   41   0.000   0.000        0
    50  194304          1   48   42   0.000   0.000        0
    51  164204          1   24   50   0.000   0.000        0
    52  Pago107         1   25   50   0.000   0.000        0
    53  Fagatogo102     1   26   54   0.000   0.000        0
    54  VATI170         1   13   62   0.000   0.000        0
    55  163903          1   21   64   0.000   0.000        0
    56  AUA98           1   20   64   0.000   0.000        0
    57  LAU96           1   28   67   0.000   0.000        0
    58  153401          1   12   94   0.000   0.000        0
1
                            STRESS PERIOD NO.    1, LENGTH =   73050.00    
                            -----------------------------------------------

                              NUMBER OF TIME STEPS =  1000

                               MULTIPLIER FOR DELT =     1.000

                            INITIAL TIME STEP SIZE =   73.05000    

 BOUND. NO. LAYER   ROW   COL     STAGE      CONDUCTANCE         
 ----------------------------------------------------------------
      1      1      2     90       1.000           30.00    
      2      1      2     91       1.000           30.00    
      3      1      2     92       1.000           30.00    
      4      1      2     93       1.000           30.00    
      5      1      2     94       1.000           30.00    
      6      1      2     95       1.000           30.00    
      7      1      2     96       1.000           30.00    
      8      1      2     97       1.000           30.00    
      9      1      2     98       1.000           30.00    
     10      1      2     99       1.000           30.00    
     11      1      2    100       1.000           30.00    
     12      1      2    101       1.000           30.00    
     13      1      2    102       1.000           30.00    
     14      1      2    103       1.000           30.00    
     15      1      2    104       1.000           30.00    
     16      1      2    105       1.000           30.00    
     17      1      2    106       1.000           30.00    
     18      1      2    107       1.000           30.00    
     19      1      2    108       1.000           30.00    
     20      1      2    109       1.000           30.00    
     21      1      2    110       1.000           30.00    
     22      1      2    111       1.000           30.00    
     23      1      2    112       1.000           30.00    
     24      1      2    113       1.000           30.00    
     25      1      2    114       1.000           30.00    
     26      1      2    115       1.000           30.00    
     27      1      2    116       1.000           30.00    
     28      1      2    117       1.000           30.00    
     29      1      2    118       1.000           30.00    
     30      1      2    119       1.000           30.00    
     31      1      2    120       1.000           30.00    
     32      1      2    121       1.000           30.00    
     33      1      2    122       1.000           30.00    
     34      1      2    123       1.000           30.00    
     35      1      2    124       1.000           30.00    
     36      1      2    125       1.000           30.00    
     37      1      2    126       1.000           30.00    
     38      1      2    127       1.000           30.00    
     39      1      2    128       1.000           30.00    
     40      1      2    129       1.000           30.00    
     41      1      2    130       1.000           30.00    
     42      1      2    131       1.000           30.00    
     43      1      2    132       1.000           30.00    
     44      1      2    133       1.000           30.00    
     45      1      2    134       1.000           30.00    
     46      1      2    135       1.000           30.00    
     47      1      2    136       1.000           30.00    
     48      1      2    137       1.000           30.00    
     49      1      2    138       1.000           30.00    
     50      1      2    139       1.000           30.00    
     51      1      2    140       1.000           30.00    
     52      1      2    141       1.000           30.00    
     53      1      2    142       1.000           30.00    
     54      1      2    143       1.000           30.00    
     55      1      2    144       1.000           30.00    
     56      1      2    145       1.000           30.00    
     57      1      2    146       1.000           30.00    
     58      1      2    147       1.000           30.00    
     59      1      2    148       1.000           30.00    
     60      1      2    149       1.000           30.00    
     61      1      2    150       1.000           30.00    
     62      1      2    151       1.000           30.00    
     63      1      2    152       1.000           30.00    
     64      1      2    153       1.000           30.00    
     65      1      2    154       1.000           30.00    
     66      1      2    155       1.000           30.00    
     67      1      2    156       1.000           30.00    
     68      1      2    157       1.000           30.00    
     69      1      2    158       1.000           30.00    
     70      1      2    159       1.000           30.00    
     71      1      2    160       1.000           30.00    
     72      1      2    161       1.000           30.00    
     73      1      2    162       1.000           30.00    
     74      1      2    163       1.000           30.00    
     75      1      2    164       1.000           30.00    
     76      1      2    165       1.000           30.00    
     77      1      2    166       1.000           30.00    
     78      1      2    167       1.000           30.00    
     79      1      2    168       1.000           30.00    
     80      1      2    169       1.000           30.00    
     81      1      2    170       1.000           30.00    
     82      1      2    171       1.000           30.00    
     83      1      2    172       1.000           30.00    
     84      1      2    173       1.000           30.00    
     85      1      2    174       1.000           30.00    
     86      1      2    175       1.000           30.00    
     87      1      2    176       1.000           30.00    
     88      1      2    177       1.000           30.00    
     89      1      2    178       1.000           30.00    
     90      1      2    179       1.000           30.00    
     91      1      2    180       1.000           30.00    
     92      1      2    181       1.000           30.00    
     93      1      2    182       1.000           30.00    
     94      1      2    183       1.000           30.00    
     95      1      2    184       1.000           30.00    
     96      1      2    185       1.000           30.00    
     97      1      2    186       1.000           30.00    
     98      1      2    187       1.000           30.00    
     99      1      2    188       1.000           30.00    
    100      1      2    189       1.000           30.00    
    101      1      2    190       1.000           30.00    
    102      1      2    191       1.000           30.00    
    103      1      2    192       1.000           30.00    
    104      1      2    193       1.000           30.00    
    105      1      2    194       1.000           30.00    
    106      1      2    195       1.000           30.00    
    107      1      2    196       1.000           30.00    
    108      1      2    197       1.000           30.00    
    109      1      2    198       1.000           30.00    
    110      1      2    199       1.000           30.00    
    111      1      3     89       1.000           30.00    
    112      1      3     90       1.000           30.00    
    113      1      3     91       1.000           30.00    
    114      1      3     92       1.000           30.00    
    115      1      3     93       1.000           30.00    
    116      1      3     94       1.000           30.00    
    117      1      3     95       1.000           30.00    
    118      1      3     96       1.000           30.00    
    119      1      3     97       1.000           30.00    
    120      1      3     98       1.000           30.00    
    121      1      3     99       1.000           30.00    
    122      1      3    100       1.000           30.00    
    123      1      3    101       1.000           30.00    
    124      1      3    102       1.000           30.00    
    125      1      3    103       1.000           30.00    
    126      1      3    104       1.000           30.00    
    127      1      3    105       1.000           30.00    
    128      1      3    106       1.000           30.00    
    129      1      3    107       1.000           30.00    
    130      1      3    108       1.000           30.00    
    131      1      3    109       1.000           30.00    
    132      1      3    110       1.000           30.00    
    133      1      3    111       1.000           30.00    
    134      1      3    112       1.000           30.00    
    135      1      3    113       1.000           30.00    
    136      1      3    114       1.000           30.00    
    137      1      3    115       1.000           30.00    
    138      1      3    116       1.000           30.00    
    139      1      3    117       1.000           30.00    
    140      1      3    118       1.000           30.00    
    141      1      3    119       1.000           30.00    
    142      1      3    120       1.000           30.00    
    143      1      3    121       1.000           30.00    
    144      1      3    122       1.000           30.00    
    145      1      3    123       1.000           30.00    
    146      1      3    124       1.000           30.00    
    147      1      3    125       1.000           30.00    
    148      1      3    126       1.000           30.00    
    149      1      3    127       1.000           30.00    
    150      1      3    128       1.000           30.00    
    151      1      3    129       1.000           30.00    
    152      1      3    130       1.000           30.00    
    153      1      3    131       1.000           30.00    
    154      1      3    132       1.000           30.00    
    155      1      3    133       1.000           30.00    
    156      1      3    134       1.000           30.00    
    157      1      3    135       1.000           30.00    
    158      1      3    136       1.000           30.00    
    159      1      3    137       1.000           30.00    
    160      1      3    138       1.000           30.00    
    161      1      3    139       1.000           30.00    
    162      1      3    140       1.000           30.00    
    163      1      3    141       1.000           30.00    
    164      1      3    142       1.000           30.00    
    165      1      3    143       1.000           30.00    
    166      1      3    144       1.000           30.00    
    167      1      3    145       1.000           30.00    
    168      1      3    146       1.000           30.00    
    169      1      3    147       1.000           30.00    
    170      1      3    148       1.000           30.00    
    171      1      3    149       1.000           30.00    
    172      1      3    150       1.000           30.00    
    173      1      3    151       1.000           30.00    
    174      1      3    152       1.000           30.00    
    175      1      3    153       1.000           30.00    
    176      1      3    154       1.000           30.00    
    177      1      3    155       1.000           30.00    
    178      1      3    156       1.000           30.00    
    179      1      3    157       1.000           30.00    
    180      1      3    158       1.000           30.00    
    181      1      3    159       1.000           30.00    
    182      1      3    160       1.000           30.00    
    183      1      3    161       1.000           30.00    
    184      1      3    162       1.000           30.00    
    185      1      3    163       1.000           30.00    
    186      1      3    164       1.000           30.00    
    187      1      3    165       1.000           30.00    
    188      1      3    166       1.000           30.00    
    189      1      3    167       1.000           30.00    
    190      1      3    168       1.000           30.00    
    191      1      3    169       1.000           30.00    
    192      1      3    170       1.000           30.00    
    193      1      3    171       1.000           30.00    
    194      1      3    172       1.000           30.00    
    195      1      3    173       1.000           30.00    
    196      1      3    174       1.000           30.00    
    197      1      3    175       1.000           30.00    
    198      1      3    176       1.000           30.00    
    199      1      3    177       1.000           30.00    
    200      1      3    178       1.000           30.00    
    201      1      3    179       1.000           30.00    
    202      1      3    180       1.000           30.00    
    203      1      3    181       1.000           30.00    
    204      1      3    182       1.000           30.00    
    205      1      3    183       1.000           30.00    
    206      1      3    184       1.000           30.00    
    207      1      3    185       1.000           30.00    
    208      1      3    186       1.000           30.00    
    209      1      3    187       1.000           30.00    
    210      1      3    188       1.000           30.00    
    211      1      3    189       1.000           30.00    
    212      1      3    190       1.000           30.00    
    213      1      3    191       1.000           30.00    
    214      1      3    192       1.000           30.00    
    215      1      3    193       1.000           30.00    
    216      1      3    194       1.000           30.00    
    217      1      3    195       1.000           30.00    
    218      1      3    196       1.000           30.00    
    219      1      3    197       1.000           30.00    
    220      1      3    198       1.000           30.00    
    221      1      3    199       1.000           30.00    
    222      1      4     89       1.000           30.00    
    223      1      4     90       1.000           30.00    
    224      1      4     91       1.000           30.00    
    225      1      4     92       1.000           30.00    
    226      1      4     93       1.000           30.00    
    227      1      4     94       1.000           30.00    
    228      1      4     95       1.000           30.00    
    229      1      4     96       1.000           30.00    
    230      1      4     97       1.000           30.00    
    231      1      4     98       1.000           30.00    
    232      1      4     99       1.000           30.00    
    233      1      4    100       1.000           30.00    
    234      1      4    101       1.000           30.00    
    235      1      4    102       1.000           30.00    
    236      1      4    103       1.000           30.00    
    237      1      4    104       1.000           30.00    
    238      1      4    105       1.000           30.00    
    239      1      4    106       1.000           30.00    
    240      1      4    107       1.000           30.00    
    241      1      4    108       1.000           30.00    
    242      1      4    109       1.000           30.00    
    243      1      4    110       1.000           30.00    
    244      1      4    111       1.000           30.00    
    245      1      4    112       1.000           30.00    
    246      1      4    113       1.000           30.00    
    247      1      4    114       1.000           30.00    
    248      1      4    115       1.000           30.00    
    249      1      4    116       1.000           30.00    
    250      1      4    117       1.000           30.00    
    251      1      4    118       1.000           30.00    
    252      1      4    119       1.000           30.00    
    253      1      4    120       1.000           30.00    
    254      1      4    121       1.000           30.00    
    255      1      4    122       1.000           30.00    
    256      1      4    123       1.000           30.00    
    257      1      4    124       1.000           30.00    
    258      1      4    125       1.000           30.00    
    259      1      4    126       1.000           30.00    
    260      1      4    127       1.000           30.00    
    261      1      4    128       1.000           30.00    
    262      1      4    129       1.000           30.00    
    263      1      4    130       1.000           30.00    
    264      1      4    131       1.000           30.00    
    265      1      4    132       1.000           30.00    
    266      1      4    133       1.000           30.00    
    267      1      4    134       1.000           30.00    
    268      1      4    135       1.000           30.00    
    269      1      4    136       1.000           30.00    
    270      1      4    137       1.000           30.00    
    271      1      4    138       1.000           30.00    
    272      1      4    139       1.000           30.00    
    273      1      4    140       1.000           30.00    
    274      1      4    141       1.000           30.00    
    275      1      4    142       1.000           30.00    
    276      1      4    143       1.000           30.00    
    277      1      4    144       1.000           30.00    
    278      1      4    145       1.000           30.00    
    279      1      4    146       1.000           30.00    
    280      1      4    147       1.000           30.00    
    281      1      4    148       1.000           30.00    
    282      1      4    149       1.000           30.00    
    283      1      4    150       1.000           30.00    
    284      1      4    151       1.000           30.00    
    285      1      4    152       1.000           30.00    
    286      1      4    153       1.000           30.00    
    287      1      4    154       1.000           30.00    
    288      1      4    155       1.000           30.00    
    289      1      4    156       1.000           30.00    
    290      1      4    157       1.000           30.00    
    291      1      4    158       1.000           30.00    
    292      1      4    159       1.000           30.00    
    293      1      4    160       1.000           30.00    
    294      1      4    161       1.000           30.00    
    295      1      4    162       1.000           30.00    
    296      1      4    163       1.000           30.00    
    297      1      4    164       1.000           30.00    
    298      1      4    165       1.000           30.00    
    299      1      4    166       1.000           30.00    
    300      1      4    167       1.000           30.00    
    301      1      4    168       1.000           30.00    
    302      1      4    169       1.000           30.00    
    303      1      4    170       1.000           30.00    
    304      1      4    171       1.000           30.00    
    305      1      4    172       1.000           30.00    
    306      1      4    173       1.000           30.00    
    307      1      4    174       1.000           30.00    
    308      1      4    175       1.000           30.00    
    309      1      4    176       1.000           30.00    
    310      1      4    177       1.000           30.00    
    311      1      4    178       1.000           30.00    
    312      1      4    179       1.000           30.00    
    313      1      4    180       1.000           30.00    
    314      1      4    181       1.000           30.00    
    315      1      4    182       1.000           30.00    
    316      1      4    183       1.000           30.00    
    317      1      4    184       1.000           30.00    
    318      1      4    185       1.000           30.00    
    319      1      4    186       1.000           30.00    
    320      1      4    187       1.000           30.00    
    321      1      4    188       1.000           30.00    
    322      1      4    189       1.000           30.00    
    323      1      4    190       1.000           30.00    
    324      1      4    191       1.000           30.00    
    325      1      4    192       1.000           30.00    
    326      1      4    193       1.000           30.00    
    327      1      4    194       1.000           30.00    
    328      1      4    195       1.000           30.00    
    329      1      4    196       1.000           30.00    
    330      1      4    197       1.000           30.00    
    331      1      4    198       1.000           30.00    
    332      1      4    199       1.000           30.00    
    333      1      5     88       1.000           30.00    
    334      1      5     89       1.000           30.00    
    335      1      5     90       1.000           30.00    
    336      1      5     91       1.000           30.00    
    337      1      5     92       1.000           30.00    
    338      1      5     93       1.000           30.00    
    339      1      5     94       1.000           30.00    
    340      1      5     95       1.000           30.00    
    341      1      5     96       1.000           30.00    
    342      1      5     97       1.000           30.00    
    343      1      5     98       1.000           30.00    
    344      1      5     99       1.000           30.00    
    345      1      5    100       1.000           30.00    
    346      1      5    101       1.000           30.00    
    347      1      5    102       1.000           30.00    
    348      1      5    103       1.000           30.00    
    349      1      5    104       1.000           30.00    
    350      1      5    105       1.000           30.00    
    351      1      5    106       1.000           30.00    
    352      1      5    107       1.000           30.00    
    353      1      5    108       1.000           30.00    
    354      1      5    109       1.000           30.00    
    355      1      5    110       1.000           30.00    
    356      1      5    111       1.000           30.00    
    357      1      5    112       1.000           30.00    
    358      1      5    113       1.000           30.00    
    359      1      5    114       1.000           30.00    
    360      1      5    115       1.000           30.00    
    361      1      5    116       1.000           30.00    
    362      1      5    117       1.000           30.00    
    363      1      5    118       1.000           30.00    
    364      1      5    119       1.000           30.00    
    365      1      5    120       1.000           30.00    
    366      1      5    121       1.000           30.00    
    367      1      5    122       1.000           30.00    
    368      1      5    123       1.000           30.00    
    369      1      5    124       1.000           30.00    
    370      1      5    125       1.000           30.00    
    371      1      5    126       1.000           30.00    
    372      1      5    127       1.000           30.00    
    373      1      5    128       1.000           30.00    
    374      1      5    129       1.000           30.00    
    375      1      5    130       1.000           30.00    
    376      1      5    131       1.000           30.00    
    377      1      5    132       1.000           30.00    
    378      1      5    133       1.000           30.00    
    379      1      5    134       1.000           30.00    
    380      1      5    135       1.000           30.00    
    381      1      5    136       1.000           30.00    
    382      1      5    137       1.000           30.00    
    383      1      5    138       1.000           30.00    
    384      1      5    139       1.000           30.00    
    385      1      5    140       1.000           30.00    
    386      1      5    141       1.000           30.00    
    387      1      5    142       1.000           30.00    
    388      1      5    143       1.000           30.00    
    389      1      5    144       1.000           30.00    
    390      1      5    145       1.000           30.00    
    391      1      5    146       1.000           30.00    
    392      1      5    147       1.000           30.00    
    393      1      5    148       1.000           30.00    
    394      1      5    149       1.000           30.00    
    395      1      5    150       1.000           30.00    
    396      1      5    151       1.000           30.00    
    397      1      5    152       1.000           30.00    
    398      1      5    153       1.000           30.00    
    399      1      5    154       1.000           30.00    
    400      1      5    155       1.000           30.00    
    401      1      5    156       1.000           30.00    
    402      1      5    157       1.000           30.00    
    403      1      5    158       1.000           30.00    
    404      1      5    159       1.000           30.00    
    405      1      5    160       1.000           30.00    
    406      1      5    161       1.000           30.00    
    407      1      5    162       1.000           30.00    
    408      1      5    163       1.000           30.00    
    409      1      5    164       1.000           30.00    
    410      1      5    165       1.000           30.00    
    411      1      5    166       1.000           30.00    
    412      1      5    167       1.000           30.00    
    413      1      5    168       1.000           30.00    
    414      1      5    169       1.000           30.00    
    415      1      5    170       1.000           30.00    
    416      1      5    171       1.000           30.00    
    417      1      5    172       1.000           30.00    
    418      1      5    173       1.000           30.00    
    419      1      5    174       1.000           30.00    
    420      1      5    175       1.000           30.00    
    421      1      5    176       1.000           30.00    
    422      1      5    177       1.000           30.00    
    423      1      5    178       1.000           30.00    
    424      1      5    179       1.000           30.00    
    425      1      5    180       1.000           30.00    
    426      1      5    181       1.000           30.00    
    427      1      5    182       1.000           30.00    
    428      1      5    183       1.000           30.00    
    429      1      5    184       1.000           30.00    
    430      1      5    185       1.000           30.00    
    431      1      5    186       1.000           30.00    
    432      1      5    187       1.000           30.00    
    433      1      5    188       1.000           30.00    
    434      1      5    189       1.000           30.00    
    435      1      5    190       1.000           30.00    
    436      1      5    191       1.000           30.00    
    437      1      5    192       1.000           30.00    
    438      1      5    193       1.000           30.00    
    439      1      5    194       1.000           30.00    
    440      1      5    195       1.000           30.00    
    441      1      5    196       1.000           30.00    
    442      1      5    197       1.000           30.00    
    443      1      5    198       1.000           30.00    
    444      1      5    199       1.000           30.00    
    445      1      6     87       1.000           30.00    
    446      1      6     88       1.000           30.00    
    447      1      6     89       1.000           30.00    
    448      1      6     90       1.000           30.00    
    449      1      6     91       1.000           30.00    
    450      1      6     92       1.000           30.00    
    451      1      6     93       1.000           30.00    
    452      1      6     94       1.000           30.00    
    453      1      6     95       1.000           30.00    
    454      1      6     96       1.000           30.00    
    455      1      6     97       1.000           30.00    
    456      1      6     98       1.000           30.00    
    457      1      6     99       1.000           30.00    
    458      1      6    100       1.000           30.00    
    459      1      6    101       1.000           30.00    
    460      1      6    102       1.000           30.00    
    461      1      6    103       1.000           30.00    
    462      1      6    104       1.000           30.00    
    463      1      6    105       1.000           30.00    
    464      1      6    106       1.000           30.00    
    465      1      6    107       1.000           30.00    
    466      1      6    108       1.000           30.00    
    467      1      6    109       1.000           30.00    
    468      1      6    110       1.000           30.00    
    469      1      6    111       1.000           30.00    
    470      1      6    112       1.000           30.00    
    471      1      6    113       1.000           30.00    
    472      1      6    114       1.000           30.00    
    473      1      6    115       1.000           30.00    
    474      1      6    116       1.000           30.00    
    475      1      6    117       1.000           30.00    
    476      1      6    118       1.000           30.00    
    477      1      6    119       1.000           30.00    
    478      1      6    121       1.000           30.00    
    479      1      6    122       1.000           30.00    
    480      1      6    123       1.000           30.00    
    481      1      6    124       1.000           30.00    
    482      1      6    125       1.000           30.00    
    483      1      6    126       1.000           30.00    
    484      1      6    127       1.000           30.00    
    485      1      6    128       1.000           30.00    
    486      1      6    129       1.000           30.00    
    487      1      6    130       1.000           30.00    
    488      1      6    131       1.000           30.00    
    489      1      6    132       1.000           30.00    
    490      1      6    133       1.000           30.00    
    491      1      6    134       1.000           30.00    
    492      1      6    135       1.000           30.00    
    493      1      6    136       1.000           30.00    
    494      1      6    137       1.000           30.00    
    495      1      6    138       1.000           30.00    
    496      1      6    139       1.000           30.00    
    497      1      6    140       1.000           30.00    
    498      1      6    141       1.000           30.00    
    499      1      6    142       1.000           30.00    
    500      1      6    143       1.000           30.00    
    501      1      6    144       1.000           30.00    
    502      1      6    145       1.000           30.00    
    503      1      6    146       1.000           30.00    
    504      1      6    147       1.000           30.00    
    505      1      6    148       1.000           30.00    
    506      1      6    149       1.000           30.00    
    507      1      6    150       1.000           30.00    
    508      1      6    151       1.000           30.00    
    509      1      6    152       1.000           30.00    
    510      1      6    153       1.000           30.00    
    511      1      6    154       1.000           30.00    
    512      1      6    155       1.000           30.00    
    513      1      6    156       1.000           30.00    
    514      1      6    157       1.000           30.00    
    515      1      6    158       1.000           30.00    
    516      1      6    159       1.000           30.00    
    517      1      6    160       1.000           30.00    
    518      1      6    161       1.000           30.00    
    519      1      6    162       1.000           30.00    
    520      1      6    163       1.000           30.00    
    521      1      6    164       1.000           30.00    
    522      1      6    165       1.000           30.00    
    523      1      6    166       1.000           30.00    
    524      1      6    167       1.000           30.00    
    525      1      6    168       1.000           30.00    
    526      1      6    169       1.000           30.00    
    527      1      6    170       1.000           30.00    
    528      1      6    171       1.000           30.00    
    529      1      6    172       1.000           30.00    
    530      1      6    173       1.000           30.00    
    531      1      6    174       1.000           30.00    
    532      1      6    175       1.000           30.00    
    533      1      6    176       1.000           30.00    
    534      1      6    177       1.000           30.00    
    535      1      6    178       1.000           30.00    
    536      1      6    179       1.000           30.00    
    537      1      6    180       1.000           30.00    
    538      1      6    181       1.000           30.00    
    539      1      6    182       1.000           30.00    
    540      1      6    183       1.000           30.00    
    541      1      6    184       1.000           30.00    
    542      1      6    185       1.000           30.00    
    543      1      6    186       1.000           30.00    
    544      1      6    187       1.000           30.00    
    545      1      6    188       1.000           30.00    
    546      1      6    189       1.000           30.00    
    547      1      6    190       1.000           30.00    
    548      1      6    191       1.000           30.00    
    549      1      6    192       1.000           30.00    
    550      1      6    193       1.000           30.00    
    551      1      6    194       1.000           30.00    
    552      1      6    195       1.000           30.00    
    553      1      6    196       1.000           30.00    
    554      1      6    197       1.000           30.00    
    555      1      6    198       1.000           30.00    
    556      1      6    199       1.000           30.00    
    557      1      7     87       1.000           30.00    
    558      1      7     88       1.000           30.00    
    559      1      7     89       1.000           30.00    
    560      1      7     90       1.000           30.00    
    561      1      7     91       1.000           30.00    
    562      1      7     92       1.000           30.00    
    563      1      7     93       1.000           30.00    
    564      1      7     94       1.000           30.00    
    565      1      7     95       1.000           30.00    
    566      1      7     96       1.000           30.00    
    567      1      7     97       1.000           30.00    
    568      1      7     98       1.000           30.00    
    569      1      7     99       1.000           30.00    
    570      1      7    100       1.000           30.00    
    571      1      7    101       1.000           30.00    
    572      1      7    102       1.000           30.00    
    573      1      7    103       1.000           30.00    
    574      1      7    104       1.000           30.00    
    575      1      7    105       1.000           30.00    
    576      1      7    106       1.000           30.00    
    577      1      7    107       1.000           30.00    
    578      1      7    108       1.000           30.00    
    579      1      7    109       1.000           30.00    
    580      1      7    110       1.000           30.00    
    581      1      7    111       1.000           30.00    
    582      1      7    112       1.000           30.00    
    583      1      7    113       1.000           30.00    
    584      1      7    114       1.000           30.00    
    585      1      7    115       1.000           30.00    
    586      1      7    116       1.000           30.00    
    587      1      7    117       1.000           30.00    
    588      1      7    118       1.000           30.00    
    589      1      7    121       1.000           30.00    
    590      1      7    122       1.000           30.00    
    591      1      7    123       1.000           30.00    
    592      1      7    124       1.000           30.00    
    593      1      7    125       1.000           30.00    
    594      1      7    126       1.000           30.00    
    595      1      7    127       1.000           30.00    
    596      1      7    128       1.000           30.00    
    597      1      7    129       1.000           30.00    
    598      1      7    130       1.000           30.00    
    599      1      7    131       1.000           30.00    
    600      1      7    132       1.000           30.00    
    601      1      7    133       1.000           30.00    
    602      1      7    134       1.000           30.00    
    603      1      7    135       1.000           30.00    
    604      1      7    136       1.000           30.00    
    605      1      7    137       1.000           30.00    
    606      1      7    138       1.000           30.00    
    607      1      7    139       1.000           30.00    
    608      1      7    140       1.000           30.00    
    609      1      7    141       1.000           30.00    
    610      1      7    142       1.000           30.00    
    611      1      7    143       1.000           30.00    
    612      1      7    144       1.000           30.00    
    613      1      7    145       1.000           30.00    
    614      1      7    146       1.000           30.00    
    615      1      7    147       1.000           30.00    
    616      1      7    148       1.000           30.00    
    617      1      7    149       1.000           30.00    
    618      1      7    150       1.000           30.00    
    619      1      7    151       1.000           30.00    
    620      1      7    152       1.000           30.00    
    621      1      7    153       1.000           30.00    
    622      1      7    154       1.000           30.00    
    623      1      7    155       1.000           30.00    
    624      1      7    156       1.000           30.00    
    625      1      7    157       1.000           30.00    
    626      1      7    158       1.000           30.00    
    627      1      7    159       1.000           30.00    
    628      1      7    160       1.000           30.00    
    629      1      7    161       1.000           30.00    
    630      1      7    162       1.000           30.00    
    631      1      7    163       1.000           30.00    
    632      1      7    164       1.000           30.00    
    633      1      7    165       1.000           30.00    
    634      1      7    166       1.000           30.00    
    635      1      7    167       1.000           30.00    
    636      1      7    168       1.000           30.00    
    637      1      7    169       1.000           30.00    
    638      1      7    170       1.000           30.00    
    639      1      7    171       1.000           30.00    
    640      1      7    172       1.000           30.00    
    641      1      7    173       1.000           30.00    
    642      1      7    174       1.000           30.00    
    643      1      7    175       1.000           30.00    
    644      1      7    176       1.000           30.00    
    645      1      7    177       1.000           30.00    
    646      1      7    178       1.000           30.00    
    647      1      7    179       1.000           30.00    
    648      1      7    180       1.000           30.00    
    649      1      7    181       1.000           30.00    
    650      1      7    182       1.000           30.00    
    651      1      7    183       1.000           30.00    
    652      1      7    184       1.000           30.00    
    653      1      7    185       1.000           30.00    
    654      1      7    186       1.000           30.00    
    655      1      7    187       1.000           30.00    
    656      1      7    188       1.000           30.00    
    657      1      7    189       1.000           30.00    
    658      1      7    190       1.000           30.00    
    659      1      7    191       1.000           30.00    
    660      1      7    192       1.000           30.00    
    661      1      7    193       1.000           30.00    
    662      1      7    194       1.000           30.00    
    663      1      7    195       1.000           30.00    
    664      1      7    196       1.000           30.00    
    665      1      7    197       1.000           30.00    
    666      1      7    198       1.000           30.00    
    667      1      7    199       1.000           30.00    
    668      1      8     86       1.000           30.00    
    669      1      8     87       1.000           30.00    
    670      1      8     88       1.000           30.00    
    671      1      8     89       1.000           30.00    
    672      1      8     90       1.000           30.00    
    673      1      8     91       1.000           30.00    
    674      1      8     92       1.000           30.00    
    675      1      8     93       1.000           30.00    
    676      1      8     94       1.000           30.00    
    677      1      8     95       1.000           30.00    
    678      1      8     96       1.000           30.00    
    679      1      8     97       1.000           30.00    
    680      1      8     98       1.000           30.00    
    681      1      8     99       1.000           30.00    
    682      1      8    100       1.000           30.00    
    683      1      8    101       1.000           30.00    
    684      1      8    102       1.000           30.00    
    685      1      8    103       1.000           30.00    
    686      1      8    104       1.000           30.00    
    687      1      8    105       1.000           30.00    
    688      1      8    106       1.000           30.00    
    689      1      8    107       1.000           30.00    
    690      1      8    108       1.000           30.00    
    691      1      8    109       1.000           30.00    
    692      1      8    110       1.000           30.00    
    693      1      8    111       1.000           30.00    
    694      1      8    112       1.000           30.00    
    695      1      8    113       1.000           30.00    
    696      1      8    114       1.000           30.00    
    697      1      8    115       1.000           30.00    
    698      1      8    116       1.000           30.00    
    699      1      8    121       1.000           30.00    
    700      1      8    122       1.000           30.00    
    701      1      8    123       1.000           30.00    
    702      1      8    124       1.000           30.00    
    703      1      8    125       1.000           30.00    
    704      1      8    126       1.000           30.00    
    705      1      8    127       1.000           30.00    
    706      1      8    128       1.000           30.00    
    707      1      8    129       1.000           30.00    
    708      1      8    130       1.000           30.00    
    709      1      8    131       1.000           30.00    
    710      1      8    132       1.000           30.00    
    711      1      8    133       1.000           30.00    
    712      1      8    134       1.000           30.00    
    713      1      8    135       1.000           30.00    
    714      1      8    136       1.000           30.00    
    715      1      8    137       1.000           30.00    
    716      1      8    138       1.000           30.00    
    717      1      8    139       1.000           30.00    
    718      1      8    140       1.000           30.00    
    719      1      8    141       1.000           30.00    
    720      1      8    142       1.000           30.00    
    721      1      8    143       1.000           30.00    
    722      1      8    144       1.000           30.00    
    723      1      8    145       1.000           30.00    
    724      1      8    146       1.000           30.00    
    725      1      8    147       1.000           30.00    
    726      1      8    148       1.000           30.00    
    727      1      8    149       1.000           30.00    
    728      1      8    150       1.000           30.00    
    729      1      8    151       1.000           30.00    
    730      1      8    152       1.000           30.00    
    731      1      8    153       1.000           30.00    
    732      1      8    154       1.000           30.00    
    733      1      8    155       1.000           30.00    
    734      1      8    156       1.000           30.00    
    735      1      8    157       1.000           30.00    
    736      1      8    158       1.000           30.00    
    737      1      8    159       1.000           30.00    
    738      1      8    160       1.000           30.00    
    739      1      8    161       1.000           30.00    
    740      1      8    162       1.000           30.00    
    741      1      8    163       1.000           30.00    
    742      1      8    164       1.000           30.00    
    743      1      8    165       1.000           30.00    
    744      1      8    166       1.000           30.00    
    745      1      8    167       1.000           30.00    
    746      1      8    168       1.000           30.00    
    747      1      8    169       1.000           30.00    
    748      1      8    170       1.000           30.00    
    749      1      8    171       1.000           30.00    
    750      1      8    172       1.000           30.00    
    751      1      8    173       1.000           30.00    
    752      1      8    174       1.000           30.00    
    753      1      8    175       1.000           30.00    
    754      1      8    176       1.000           30.00    
    755      1      8    177       1.000           30.00    
    756      1      8    178       1.000           30.00    
    757      1      8    179       1.000           30.00    
    758      1      8    180       1.000           30.00    
    759      1      8    181       1.000           30.00    
    760      1      8    182       1.000           30.00    
    761      1      8    183       1.000           30.00    
    762      1      8    184       1.000           30.00    
    763      1      8    185       1.000           30.00    
    764      1      8    186       1.000           30.00    
    765      1      8    187       1.000           30.00    
    766      1      8    188       1.000           30.00    
    767      1      8    189       1.000           30.00    
    768      1      8    190       1.000           30.00    
    769      1      8    191       1.000           30.00    
    770      1      8    192       1.000           30.00    
    771      1      8    193       1.000           30.00    
    772      1      8    194       1.000           30.00    
    773      1      8    195       1.000           30.00    
    774      1      8    196       1.000           30.00    
    775      1      8    197       1.000           30.00    
    776      1      8    198       1.000           30.00    
    777      1      8    199       1.000           30.00    
    778      1      9     85       1.000           30.00    
    779      1      9     86       1.000           30.00    
    780      1      9     87       1.000           30.00    
    781      1      9     88       1.000           30.00    
    782      1      9     89       1.000           30.00    
    783      1      9     90       1.000           30.00    
    784      1      9     91       1.000           30.00    
    785      1      9     92       1.000           30.00    
    786      1      9     93       1.000           30.00    
    787      1      9     94       1.000           30.00    
    788      1      9     95       1.000           30.00    
    789      1      9     96       1.000           30.00    
    790      1      9     97       1.000           30.00    
    791      1      9     98       1.000           30.00    
    792      1      9     99       1.000           30.00    
    793      1      9    100       1.000           30.00    
    794      1      9    101       1.000           30.00    
    795      1      9    102       1.000           30.00    
    796      1      9    103       1.000           30.00    
    797      1      9    104       1.000           30.00    
    798      1      9    105       1.000           30.00    
    799      1      9    106       1.000           30.00    
    800      1      9    107       1.000           30.00    
    801      1      9    108       1.000           30.00    
    802      1      9    109       1.000           30.00    
    803      1      9    110       1.000           30.00    
    804      1      9    111       1.000           30.00    
    805      1      9    112       1.000           30.00    
    806      1      9    113       1.000           30.00    
    807      1      9    114       1.000           30.00    
    808      1      9    115       1.000           30.00    
    809      1      9    120       1.000           30.00    
    810      1      9    121       1.000           30.00    
    811      1      9    122       1.000           30.00    
    812      1      9    123       1.000           30.00    
    813      1      9    124       1.000           30.00    
    814      1      9    125       1.000           30.00    
    815      1      9    126       1.000           30.00    
    816      1      9    127       1.000           30.00    
    817      1      9    128       1.000           30.00    
    818      1      9    129       1.000           30.00    
    819      1      9    130       1.000           30.00    
    820      1      9    131       1.000           30.00    
    821      1      9    132       1.000           30.00    
    822      1      9    133       1.000           30.00    
    823      1      9    134       1.000           30.00    
    824      1      9    135       1.000           30.00    
    825      1      9    136       1.000           30.00    
    826      1      9    137       1.000           30.00    
    827      1      9    138       1.000           30.00    
    828      1      9    139       1.000           30.00    
    829      1      9    140       1.000           30.00    
    830      1      9    141       1.000           30.00    
    831      1      9    142       1.000           30.00    
    832      1      9    143       1.000           30.00    
    833      1      9    144       1.000           30.00    
    834      1      9    145       1.000           30.00    
    835      1      9    146       1.000           30.00    
    836      1      9    147       1.000           30.00    
    837      1      9    148       1.000           30.00    
    838      1      9    149       1.000           30.00    
    839      1      9    150       1.000           30.00    
    840      1      9    151       1.000           30.00    
    841      1      9    152       1.000           30.00    
    842      1      9    153       1.000           30.00    
    843      1      9    154       1.000           30.00    
    844      1      9    155       1.000           30.00    
    845      1      9    156       1.000           30.00    
    846      1      9    157       1.000           30.00    
    847      1      9    158       1.000           30.00    
    848      1      9    159       1.000           30.00    
    849      1      9    160       1.000           30.00    
    850      1      9    161       1.000           30.00    
    851      1      9    162       1.000           30.00    
    852      1      9    163       1.000           30.00    
    853      1      9    164       1.000           30.00    
    854      1      9    165       1.000           30.00    
    855      1      9    166       1.000           30.00    
    856      1      9    167       1.000           30.00    
    857      1      9    168       1.000           30.00    
    858      1      9    169       1.000           30.00    
    859      1      9    170       1.000           30.00    
    860      1      9    171       1.000           30.00    
    861      1      9    172       1.000           30.00    
    862      1      9    173       1.000           30.00    
    863      1      9    174       1.000           30.00    
    864      1      9    175       1.000           30.00    
    865      1      9    176       1.000           30.00    
    866      1      9    177       1.000           30.00    
    867      1      9    178       1.000           30.00    
    868      1      9    179       1.000           30.00    
    869      1      9    180       1.000           30.00    
    870      1      9    181       1.000           30.00    
    871      1      9    182       1.000           30.00    
    872      1      9    183       1.000           30.00    
    873      1      9    184       1.000           30.00    
    874      1      9    185       1.000           30.00    
    875      1      9    186       1.000           30.00    
    876      1      9    187       1.000           30.00    
    877      1      9    188       1.000           30.00    
    878      1      9    189       1.000           30.00    
    879      1      9    190       1.000           30.00    
    880      1      9    191       1.000           30.00    
    881      1      9    192       1.000           30.00    
    882      1      9    193       1.000           30.00    
    883      1      9    194       1.000           30.00    
    884      1      9    195       1.000           30.00    
    885      1      9    196       1.000           30.00    
    886      1      9    197       1.000           30.00    
    887      1      9    198       1.000           30.00    
    888      1      9    199       1.000           30.00    
    889      1     10     84       1.000           30.00    
    890      1     10     85       1.000           30.00    
    891      1     10     86       1.000           30.00    
    892      1     10     87       1.000           30.00    
    893      1     10     88       1.000           30.00    
    894      1     10     89       1.000           30.00    
    895      1     10     90       1.000           30.00    
    896      1     10     91       1.000           30.00    
    897      1     10     92       1.000           30.00    
    898      1     10     93       1.000           30.00    
    899      1     10     94       1.000           30.00    
    900      1     10     95       1.000           30.00    
    901      1     10     96       1.000           30.00    
    902      1     10     97       1.000           30.00    
    903      1     10     98       1.000           30.00    
    904      1     10     99       1.000           30.00    
    905      1     10    100       1.000           30.00    
    906      1     10    101       1.000           30.00    
    907      1     10    102       1.000           30.00    
    908      1     10    103       1.000           30.00    
    909      1     10    104       1.000           30.00    
    910      1     10    105       1.000           30.00    
    911      1     10    106       1.000           30.00    
    912      1     10    107       1.000           30.00    
    913      1     10    108       1.000           30.00    
    914      1     10    109       1.000           30.00    
    915      1     10    110       1.000           30.00    
    916      1     10    111       1.000           30.00    
    917      1     10    112       1.000           30.00    
    918      1     10    114       1.000           30.00    
    919      1     10    120       1.000           30.00    
    920      1     10    121       1.000           30.00    
    921      1     10    122       1.000           30.00    
    922      1     10    123       1.000           30.00    
    923      1     10    124       1.000           30.00    
    924      1     10    125       1.000           30.00    
    925      1     10    126       1.000           30.00    
    926      1     10    127       1.000           30.00    
    927      1     10    128       1.000           30.00    
    928      1     10    129       1.000           30.00    
    929      1     10    130       1.000           30.00    
    930      1     10    131       1.000           30.00    
    931      1     10    132       1.000           30.00    
    932      1     10    133       1.000           30.00    
    933      1     10    134       1.000           30.00    
    934      1     10    135       1.000           30.00    
    935      1     10    136       1.000           30.00    
    936      1     10    137       1.000           30.00    
    937      1     10    138       1.000           30.00    
    938      1     10    139       1.000           30.00    
    939      1     10    140       1.000           30.00    
    940      1     10    141       1.000           30.00    
    941      1     10    142       1.000           30.00    
    942      1     10    143       1.000           30.00    
    943      1     10    144       1.000           30.00    
    944      1     10    145       1.000           30.00    
    945      1     10    146       1.000           30.00    
    946      1     10    147       1.000           30.00    
    947      1     10    148       1.000           30.00    
    948      1     10    149       1.000           30.00    
    949      1     10    150       1.000           30.00    
    950      1     10    151       1.000           30.00    
    951      1     10    152       1.000           30.00    
    952      1     10    153       1.000           30.00    
    953      1     10    154       1.000           30.00    
    954      1     10    155       1.000           30.00    
    955      1     10    156       1.000           30.00    
    956      1     10    157       1.000           30.00    
    957      1     10    158       1.000           30.00    
    958      1     10    159       1.000           30.00    
    959      1     10    160       1.000           30.00    
[...]

 NO OUTPUT CONTROL FOR STRESS PERIOD    3   TIME STEP  150
 SOLVING FOR ZETA FOR LAYER     1 ZONE     2

    4468 UPPER PART EQS.      4472 LOWER PART EQS.    BAND WIDTH + 1 =   90
 STRESS PERIOD=  3 TIMESTEP=150 LAYER=  1 ZONE=  2 ACTIVE CELLS= 8940 NUMBER OF EQUATIONS=    8940
 
 SOLVING FOR HEAD 

 NO OUTPUT CONTROL FOR STRESS PERIOD    3   TIME STEP  151
 SOLVING FOR ZETA FOR LAYER     1 ZONE     2

    4474 UPPER PART EQS.      4455 LOWER PART EQS.    BAND WIDTH + 1 =   89
 STRESS PERIOD=  3 TIMESTEP=151 LAYER=  1 ZONE=  2 ACTIVE CELLS= 8929 NUMBER OF EQUATIONS=    8929
 
 SOLVING FOR HEAD 

 NO OUTPUT CONTROL FOR STRESS PERIOD    3   TIME STEP  152
 SOLVING FOR ZETA FOR LAYER     1 ZONE     2

    4470 UPPER PART EQS.      4475 LOWER PART EQS.    BAND WIDTH + 1 =   90
 STRESS PERIOD=  3 TIMESTEP=152 LAYER=  1 ZONE=  2 ACTIVE CELLS= 8945 NUMBER OF EQUATIONS=    8945
 
 SOLVING FOR HEAD 

 NO OUTPUT CONTROL FOR STRESS PERIOD    3   TIME STEP  153
 SOLVING FOR ZETA FOR LAYER     1 ZONE     2

    4464 UPPER PART EQS.      4463 LOWER PART EQS.    BAND WIDTH + 1 =   89
 STRESS PERIOD=  3 TIMESTEP=153 LAYER=  1 ZONE=  2 ACTIVE CELLS= 8927 NUMBER OF EQUATIONS=    8927
 
 SOLVING FOR HEAD 

 NO OUTPUT CONTROL FOR STRESS PERIOD    3   TIME STEP  154
 SOLVING FOR ZETA FOR LAYER     1 ZONE     2

    4477 UPPER PART EQS.      4469 LOWER PART EQS.    BAND WIDTH + 1 =   90
 STRESS PERIOD=  3 TIMESTEP=154 LAYER=  1 ZONE=  2 ACTIVE CELLS= 8946 NUMBER OF EQUATIONS=    8946
 
 SOLVING FOR HEAD 

 NO OUTPUT CONTROL FOR STRESS PERIOD    3   TIME STEP  155
 SOLVING FOR ZETA FOR LAYER     1 ZONE     2

    4468 UPPER PART EQS.      4460 LOWER PART EQS.    BAND WIDTH + 1 =   89
 STRESS PERIOD=  3 TIMESTEP=155 LAYER=  1 ZONE=  2 ACTIVE CELLS= 8928 NUMBER OF EQUATIONS=    8928
 
 SOLVING FOR HEAD 

 NO OUTPUT CONTROL FOR STRESS PERIOD    3   TIME STEP  156
 SOLVING FOR ZETA FOR LAYER     1 ZONE     2

    4473 UPPER PART EQS.      4471 LOWER PART EQS.    BAND WIDTH + 1 =   90
 STRESS PERIOD=  3 TIMESTEP=156 LAYER=  1 ZONE=  2 ACTIVE CELLS= 8944 NUMBER OF EQUATIONS=    8944
 
 SOLVING FOR HEAD 

 NO OUTPUT CONTROL FOR STRESS PERIOD    3   TIME STEP  157
 SOLVING FOR ZETA FOR LAYER     1 ZONE     2

    4469 UPPER PART EQS.      4457 LOWER PART EQS.    BAND WIDTH + 1 =   89
 STRESS PERIOD=  3 TIMESTEP=157 LAYER=  1 ZONE=  2 ACTIVE CELLS= 8926 NUMBER OF EQUATIONS=    8926
 
 SOLVING FOR HEAD 

 NO OUTPUT CONTROL FOR STRESS PERIOD    3   TIME STEP  158
 SOLVING FOR ZETA FOR LAYER     1 ZONE     2

    4472 UPPER PART EQS.      4473 LOWER PART EQS.    BAND WIDTH + 1 =   91
 STRESS PERIOD=  3 TIMESTEP=158 LAYER=  1 ZONE=  2 ACTIVE CELLS= 8945 NUMBER OF EQUATIONS=    8945
 
 SOLVING FOR HEAD 

 NO OUTPUT CONTROL FOR STRESS PERIOD    3   TIME STEP  159
 SOLVING FOR ZETA FOR LAYER     1 ZONE     2

    4466 UPPER PART EQS.      4462 LOWER PART EQS.    BAND WIDTH + 1 =   89
 STRESS PERIOD=  3 TIMESTEP=159 LAYER=  1 ZONE=  2 ACTIVE CELLS= 8928 NUMBER OF EQUATIONS=    8928
 
 SOLVING FOR HEAD 

 NO OUTPUT CONTROL FOR STRESS PERIOD    3   TIME STEP  160
 SOLVING FOR ZETA FOR LAYER     1 ZONE     2

    4477 UPPER PART EQS.      4472 LOWER PART EQS.    BAND WIDTH + 1 =   91
 STRESS PERIOD=  3 TIMESTEP=160 LAYER=  1 ZONE=  2 ACTIVE CELLS= 8949 NUMBER OF EQUATIONS=    8949
 
 SOLVING FOR HEAD 

 NO OUTPUT CONTROL FOR STRESS PERIOD    3   TIME STEP  161
 SOLVING FOR ZETA FOR LAYER     1 ZONE     2

    4465 UPPER PART EQS.      4455 LOWER PART EQS.    BAND WIDTH + 1 =   89
 STRESS PERIOD=  3 TIMESTEP=161 LAYER=  1 ZONE=  2 ACTIVE CELLS= 8920 NUMBER OF EQUATIONS=    8920
 
 SOLVING FOR HEAD 

 NO OUTPUT CONTROL FOR STRESS PERIOD    3   TIME STEP  162
 SOLVING FOR ZETA FOR LAYER     1 ZONE     2

    4474 UPPER PART EQS.      4476 LOWER PART EQS.    BAND WIDTH + 1 =   90
 STRESS PERIOD=  3 TIMESTEP=162 LAYER=  1 ZONE=  2 ACTIVE CELLS= 8950 NUMBER OF EQUATIONS=    8950
 
 SOLVING FOR HEAD 

 NO OUTPUT CONTROL FOR STRESS PERIOD    3   TIME STEP  163
 SOLVING FOR ZETA FOR LAYER     1 ZONE     2

    4470 UPPER PART EQS.      4461 LOWER PART EQS.    BAND WIDTH + 1 =   89
 STRESS PERIOD=  3 TIMESTEP=163 LAYER=  1 ZONE=  2 ACTIVE CELLS= 8931 NUMBER OF EQUATIONS=    8931
 
 SOLVING FOR HEAD 

 NO OUTPUT CONTROL FOR STRESS PERIOD    3   TIME STEP  164
 SOLVING FOR ZETA FOR LAYER     1 ZONE     2

    4472 UPPER PART EQS.      4475 LOWER PART EQS.    BAND WIDTH + 1 =   90
 STRESS PERIOD=  3 TIMESTEP=164 LAYER=  1 ZONE=  2 ACTIVE CELLS= 8947 NUMBER OF EQUATIONS=    8947
 
 SOLVING FOR HEAD 

 NO OUTPUT CONTROL FOR STRESS PERIOD    3   TIME STEP  165
 SOLVING FOR ZETA FOR LAYER     1 ZONE     2

    4470 UPPER PART EQS.      4464 LOWER PART EQS.    BAND WIDTH + 1 =   89
 STRESS PERIOD=  3 TIMESTEP=165 LAYER=  1 ZONE=  2 ACTIVE CELLS= 8934 NUMBER OF EQUATIONS=    8934
 
 SOLVING FOR HEAD 

 NO OUTPUT CONTROL FOR STRESS PERIOD    3   TIME STEP  166
 SOLVING FOR ZETA FOR LAYER     1 ZONE     2

    4478 UPPER PART EQS.      4470 LOWER PART EQS.    BAND WIDTH + 1 =   91
 STRESS PERIOD=  3 TIMESTEP=166 LAYER=  1 ZONE=  2 ACTIVE CELLS= 8948 NUMBER OF EQUATIONS=    8948
 
 SOLVING FOR HEAD 

 NO OUTPUT CONTROL FOR STRESS PERIOD    3   TIME STEP  167
 SOLVING FOR ZETA FOR LAYER     1 ZONE     2

    4470 UPPER PART EQS.      4462 LOWER PART EQS.    BAND WIDTH + 1 =   89
 STRESS PERIOD=  3 TIMESTEP=167 LAYER=  1 ZONE=  2 ACTIVE CELLS= 8932 NUMBER OF EQUATIONS=    8932
 
 SOLVING FOR HEAD 

 NO OUTPUT CONTROL FOR STRESS PERIOD    3   TIME STEP  168
 SOLVING FOR ZETA FOR LAYER     1 ZONE     2

    4469 UPPER PART EQS.      4476 LOWER PART EQS.    BAND WIDTH + 1 =   91
 STRESS PERIOD=  3 TIMESTEP=168 LAYER=  1 ZONE=  2 ACTIVE CELLS= 8945 NUMBER OF EQUATIONS=    8945
 
 SOLVING FOR HEAD 

 NO OUTPUT CONTROL FOR STRESS PERIOD    3   TIME STEP  169
 SOLVING FOR ZETA FOR LAYER     1 ZONE     2

    4470 UPPER PART EQS.      4463 LOWER PART EQS.    BAND WIDTH + 1 =   89
 STRESS PERIOD=  3 TIMESTEP=169 LAYER=  1 ZONE=  2 ACTIVE CELLS= 8933 NUMBER OF EQUATIONS=    8933
 
 SOLVING FOR HEAD 

 NO OUTPUT CONTROL FOR STRESS PERIOD    3   TIME STEP  170
 SOLVING FOR ZETA FOR LAYER     1 ZONE     2

    4476 UPPER PART EQS.      4474 LOWER PART EQS.    BAND WIDTH + 1 =   91
 STRESS PERIOD=  3 TIMESTEP=170 LAYER=  1 ZONE=  2 ACTIVE CELLS= 8950 NUMBER OF EQUATIONS=    8950
 
 SOLVING FOR HEAD 

 NO OUTPUT CONTROL FOR STRESS PERIOD    3   TIME STEP  171
 SOLVING FOR ZETA FOR LAYER     1 ZONE     2

    4465 UPPER PART EQS.      4463 LOWER PART EQS.    BAND WIDTH + 1 =   89
 STRESS PERIOD=  3 TIMESTEP=171 LAYER=  1 ZONE=  2 ACTIVE CELLS= 8928 NUMBER OF EQUATIONS=    8928
 
 SOLVING FOR HEAD 

 NO OUTPUT CONTROL FOR STRESS PERIOD    3   TIME STEP  172
 SOLVING FOR ZETA FOR LAYER     1 ZONE     2

    4478 UPPER PART EQS.      4472 LOWER PART EQS.    BAND WIDTH + 1 =   91
 STRESS PERIOD=  3 TIMESTEP=172 LAYER=  1 ZONE=  2 ACTIVE CELLS= 8950 NUMBER OF EQUATIONS=    8950
 
 SOLVING FOR HEAD 

 NO OUTPUT CONTROL FOR STRESS PERIOD    3   TIME STEP  173
 SOLVING FOR ZETA FOR LAYER     1 ZONE     2

    4468 UPPER PART EQS.      4461 LOWER PART EQS.    BAND WIDTH + 1 =   90
 STRESS PERIOD=  3 TIMESTEP=173 LAYER=  1 ZONE=  2 ACTIVE CELLS= 8929 NUMBER OF EQUATIONS=    8929
 
 SOLVING FOR HEAD 

 NO OUTPUT CONTROL FOR STRESS PERIOD    3   TIME STEP  174
 SOLVING FOR ZETA FOR LAYER     1 ZONE     2

    4475 UPPER PART EQS.      4475 LOWER PART EQS.    BAND WIDTH + 1 =   91
 STRESS PERIOD=  3 TIMESTEP=174 LAYER=  1 ZONE=  2 ACTIVE CELLS= 8950 NUMBER OF EQUATIONS=    8950
 
 SOLVING FOR HEAD 

 NO OUTPUT CONTROL FOR STRESS PERIOD    3   TIME STEP  175
 SOLVING FOR ZETA FOR LAYER     1 ZONE     2

    4470 UPPER PART EQS.      4469 LOWER PART EQS.    BAND WIDTH + 1 =   90
 STRESS PERIOD=  3 TIMESTEP=175 LAYER=  1 ZONE=  2 ACTIVE CELLS= 8939 NUMBER OF EQUATIONS=    8939
 
 SOLVING FOR HEAD 

 NO OUTPUT CONTROL FOR STRESS PERIOD    3   TIME STEP  176
 SOLVING FOR ZETA FOR LAYER     1 ZONE     2

    4473 UPPER PART EQS.      4476 LOWER PART EQS.    BAND WIDTH + 1 =   91
 STRESS PERIOD=  3 TIMESTEP=176 LAYER=  1 ZONE=  2 ACTIVE CELLS= 8949 NUMBER OF EQUATIONS=    8949
 
 SOLVING FOR HEAD 

 NO OUTPUT CONTROL FOR STRESS PERIOD    3   TIME STEP  177
 SOLVING FOR ZETA FOR LAYER     1 ZONE     2

    4470 UPPER PART EQS.      4463 LOWER PART EQS.    BAND WIDTH + 1 =   90
 STRESS PERIOD=  3 TIMESTEP=177 LAYER=  1 ZONE=  2 ACTIVE CELLS= 8933 NUMBER OF EQUATIONS=    8933
 
 SOLVING FOR HEAD 

 NO OUTPUT CONTROL FOR STRESS PERIOD    3   TIME STEP  178
 SOLVING FOR ZETA FOR LAYER     1 ZONE     2

    4478 UPPER PART EQS.      4472 LOWER PART EQS.    BAND WIDTH + 1 =   91
 STRESS PERIOD=  3 TIMESTEP=178 LAYER=  1 ZONE=  2 ACTIVE CELLS= 8950 NUMBER OF EQUATIONS=    8950
 
 SOLVING FOR HEAD 

 NO OUTPUT CONTROL FOR STRESS PERIOD    3   TIME STEP  179
 SOLVING FOR ZETA FOR LAYER     1 ZONE     2

    4470 UPPER PART EQS.      4463 LOWER PART EQS.    BAND WIDTH + 1 =   90
 STRESS PERIOD=  3 TIMESTEP=179 LAYER=  1 ZONE=  2 ACTIVE CELLS= 8933 NUMBER OF EQUATIONS=    8933
 
 SOLVING FOR HEAD 

 OUTPUT CONTROL FOR STRESS PERIOD    3   TIME STEP  180
    PRINT BUDGET
    SAVE HEAD FOR ALL LAYERS
 SOLVING FOR ZETA FOR LAYER     1 ZONE     2

    4474 UPPER PART EQS.      4478 LOWER PART EQS.    BAND WIDTH + 1 =   91
 STRESS PERIOD=  3 TIMESTEP=180 LAYER=  1 ZONE=  2 ACTIVE CELLS= 8952 NUMBER OF EQUATIONS=    8952
 UBUDSV SAVING "      ZETASRF  1" ON UNIT 55 AT TIME STEP180, STRESS PERIOD    3


                      VOLUMETRIC SWI ZONE BUDGET FOR ENTIRE MODEL
                     AT END OF TIME STEP  180 IN STRESS PERIOD   3
                                      ZONE     1
  -----------------------------------------------------------------------------------

        CUMULATIVE VOLUMES      L**3       RATES FOR THIS TIME STEP      L**3/T
        ------------------                 ------------------------

              IN:                                      IN:
              ---                                      ---
             BOUNDARIES = 51070181376.0000            BOUNDARIES =      607926.9375
          CONSTANT HEAD =           0.0000         CONSTANT HEAD =           0.0000
            ZONE CHANGE =  4387523584.0000           ZONE CHANGE =        4201.1626
       ZONE CHG TIP/TOE =    78250952.0000      ZONE CHG TIP/TOE =        1162.1304
            ZONE MIXING =           0.0000           ZONE MIXING =           0.0000

               TOTAL IN = 55535955968.0000              TOTAL IN =      613290.2500

             OUT:                                     OUT:
             ----                                     ----
             BOUNDARIES = 40394518528.0000            BOUNDARIES =      551647.6875
          CONSTANT HEAD =           0.0000         CONSTANT HEAD =           0.0000
            ZONE CHANGE = 15618642944.0000           ZONE CHANGE =       63138.4961
       ZONE CHG TIP/TOE =    55406616.0000      ZONE CHG TIP/TOE =         869.4957
            ZONE MIXING =           0.0000           ZONE MIXING =           0.0000

              TOTAL OUT = 56068567040.0000             TOTAL OUT =      615655.6875

               IN - OUT =  -532611072.0000              IN - OUT =       -2365.4375

    PERCENT DISCREPANCY =          -0.95     PERCENT DISCREPANCY =          -0.38



                      VOLUMETRIC SWI ZONE BUDGET FOR ENTIRE MODEL
                     AT END OF TIME STEP  180 IN STRESS PERIOD   3
                                      ZONE     2
  -----------------------------------------------------------------------------------

        CUMULATIVE VOLUMES      L**3       RATES FOR THIS TIME STEP      L**3/T
        ------------------                 ------------------------

              IN:                                      IN:
              ---                                      ---
             BOUNDARIES =   203796480.0000            BOUNDARIES =        2047.6295
          CONSTANT HEAD =           0.0000         CONSTANT HEAD =           0.0000
            ZONE CHANGE = 15618642944.0000           ZONE CHANGE =       63138.4961
       ZONE CHG TIP/TOE =   636696384.0000      ZONE CHG TIP/TOE =        3512.5686
            ZONE MIXING =           0.0000           ZONE MIXING =           0.0000

               TOTAL IN = 16459136000.0000              TOTAL IN =       68698.6953

             OUT:                                     OUT:
             ----                                     ----
             BOUNDARIES = 10879699968.0000            BOUNDARIES =       58326.8555
          CONSTANT HEAD =           0.0000         CONSTANT HEAD =           0.0000
            ZONE CHANGE =  4968820736.0000           ZONE CHANGE =        6844.2354
       ZONE CHG TIP/TOE =    78250952.0000      ZONE CHG TIP/TOE =        1162.1304
            ZONE MIXING =           0.0000           ZONE MIXING =           0.0000

              TOTAL OUT = 15926771712.0000             TOTAL OUT =       66333.2188

               IN - OUT =   532364288.0000              IN - OUT =        2365.4766

    PERCENT DISCREPANCY =           3.29     PERCENT DISCREPANCY =           3.50


 HEAD WILL BE SAVED ON UNIT   51 AT END OF TIME STEP  180, STRESS PERIOD    3
1
  VOLUMETRIC BUDGET FOR ENTIRE MODEL AT END OF TIME STEP  180, STRESS PERIOD   3
  ------------------------------------------------------------------------------

     CUMULATIVE VOLUMES      L**3       RATES FOR THIS TIME STEP      L**3/T
     ------------------                 ------------------------

           IN:                                      IN:
           ---                                      ---
             STORAGE =           0.0000               STORAGE =           0.0000
       CONSTANT HEAD =           0.0000         CONSTANT HEAD =           0.0000
          SWIADDTOCH =           0.0000            SWIADDTOCH =           0.0000
     HEAD DEP BOUNDS =           0.0000       HEAD DEP BOUNDS =           0.0000
            RECHARGE = 56669114368.0000              RECHARGE =      674575.3125

            TOTAL IN = 56669114368.0000              TOTAL IN =      674575.3125

          OUT:                                     OUT:
          ----                                     ----
             STORAGE =           0.0000               STORAGE =           0.0000
       CONSTANT HEAD =           0.0000         CONSTANT HEAD =           0.0000
          SWIADDTOCH =           0.0000            SWIADDTOCH =           0.0000
     HEAD DEP BOUNDS = 56421462016.0000       HEAD DEP BOUNDS =      671630.5625
            RECHARGE =   247381616.0000              RECHARGE =        2944.7622

           TOTAL OUT = 56668844032.0000             TOTAL OUT =      674575.3125

            IN - OUT =      270336.0000              IN - OUT =           0.0000

 PERCENT DISCREPANCY =           0.00     PERCENT DISCREPANCY =           0.00






         TIME SUMMARY AT END OF TIME STEP  180 IN STRESS PERIOD    3
                    SECONDS     MINUTES      HOURS       DAYS        YEARS
                    -----------------------------------------------------------
   TIME STEP LENGTH 3.15576E+06  52596.      876.60      36.525     0.10000    
 STRESS PERIOD TIME 5.68036E+08 9.46726E+06 1.57788E+05  6574.5      18.000    
         TOTAL TIME 7.25822E+09 1.20970E+08 2.01617E+06  84007.      230.00    
1

 HEAD AND DRAWDOWN OBSERVATIONS
 OBSERVATION       OBSERVED           SIMULATED
   NAME              VALUE              VALUE             DIFFERENCE
 --------------------------------------------------------------------
 FLI182          5.5000000000        2.2299432755        3.2700567245    
 214601         0.20000000298        11.042821884       -10.842822075    
 214602         0.40000000596        11.068306923       -10.668307304    
 Taputimuwind   0.30000001192        10.886130333       -10.586130142    
 214604         0.60000002384        10.942581177       -10.342580795    
 Malaeloa70      2.5999999046        11.228233337       -8.6282329559    
 MOA15           2.2999999523        11.228115082       -8.9281148911    
 MOA169          3.5000000000        11.306041718       -7.8060417175    
 Puapua47        1.2000000477        11.289546967       -10.089547157    
 TGH1            3.5999999046        11.381816864       -7.7818169594    
 Malaeloa92      1.2000000477        11.370466232       -10.170466423    
 Malaeloa91      1.7999999523        11.458275795       -9.6582756042    
 TGH3            1.8999999762        11.778179169       -9.8781795502    
 PAV177          1.2999999523        11.806983948       -10.506983757    
 Iliili79       0.89999997616        11.851168633       -10.951169014    
 Iliili62        2.5999999046        11.855405807       -9.2554054260    
 MES6            44.700000763        11.741331100        32.958671570    
 ILI76           1.6000000238        11.924796104       -10.324795723    
 Iliili74        1.7999999523        11.929906845       -10.129906654    
 194407          3.0000000000        11.761735916       -8.7617359161    
 Iliili84        1.7999999523        11.996001244       -10.196001053    
 MMI3            5.9000000954        11.651699066       -5.7516989708    
 Malaeimi109     8.1999998093        11.695072174       -3.4950723648    
 Malaeimi89      6.0000000000        11.782229424       -5.7822294235    
 Malaeimi67      3.2000000477        11.822622299       -8.6226224899    
 MMI4            16.500000000        10.437499046        6.0625009537    
 194409          25.399999619        11.750527382        13.649472237    
 214301         0.60000002384        12.230752945       -11.630752563    
 MMI1            20.299999237        11.769475937        8.5305233002    
 TAF72           1.7999999523        11.956740379       -10.156740189    
 204301         0.30000001192        12.150465965       -11.850465775    
 204302         0.50000000000        12.352787018       -11.852787018    
 194302          1.0000000000        12.093852043       -11.093852043    
 VAI183          62.500000000        2.6237280369        59.876270294    
 NUULI24B        15.800000191        9.4191732407        6.3808269501    
 Pago100(wate    1.2000000477       -999.00000000    
 PAGO163         7.3000001907        2.1811513901        5.1188488007    
 PAGOTANK24      1.2000000477       -999.00000000    
 Pagoplaza12     3.0000000000        2.0607511997       0.93924880028    
 FALU179         2.7000000477        4.0344176292       -1.3344175816    
 174101          6.0999999046        3.6157488823        2.4842510223    
 UTULEI3        0.10000000149        2.2746372223       -2.1746373177    
 Sailele130      2.7000000477        1.8197647333       0.88023531437    
 163502          5.3000001907        3.6083323956        1.6916677952    
 163301          5.6999998093        3.4307639599        2.2692358494    
 MALAEIMI88      12.350000381        11.735930443       0.61406993866    
 MMI2            21.100000381        11.569101334        9.5308990479    
 Malaeimi69      5.3000001907        11.828874588       -6.5288743973    
 194311         0.87500000000        11.980992317       -11.105992317    
 194304          1.9333000183        11.995497704       -10.062197685    
 164204          9.1750001907        2.2364764214        6.9385237694    
 Pago107         16.466699600        2.3228969574        14.143802643    
 Fagatogo102     6.6500000954        2.3266971111        4.3233032227    
 VATI170         8.1499996185       -999.00000000    
 163903          5.5666999817        1.6545561552        3.9121437073    
 AUA98           4.9000000954        1.6043283939        3.2956717014    
 LAU96           6.6500000954        2.5093362331        4.1406641006    
 153401          3.0499999523        2.0319046974        1.0180952549    

 HEAD/DRAWDOWN SUM OF SQUARED DIFFERENCE:    8.36050E+03

 Run end date and time (yyyy/mm/dd hh:mm:ss): 2019/07/30 21:02:55
 Elapsed run time:  3 Minutes, 40.833 Seconds

