                                  MODFLOW-2005     
      U.S. GEOLOGICAL SURVEY MODULAR FINITE-DIFFERENCE GROUND-WATER FLOW MODEL
                            VERSION 1.12.00 2/3/2017

 LIST FILE: mf.list
                         UNIT    2

 OPENING mf.dis
 FILE TYPE:DIS   UNIT   11   STATUS:OLD    
 FORMAT:FORMATTED              ACCESS:SEQUENTIAL          

 OPENING mf.bas
 FILE TYPE:BAS6   UNIT   13   STATUS:OLD    
 FORMAT:FORMATTED              ACCESS:SEQUENTIAL          

 OPENING mf.lpf
 FILE TYPE:LPF   UNIT   15   STATUS:OLD    
 FORMAT:FORMATTED              ACCESS:SEQUENTIAL          

 OPENING mf.rch
 FILE TYPE:RCH   UNIT   19   STATUS:OLD    
 FORMAT:FORMATTED              ACCESS:SEQUENTIAL          

 OPENING mf.oc
 FILE TYPE:OC   UNIT   14   STATUS:OLD    
 FORMAT:FORMATTED              ACCESS:SEQUENTIAL          

 OPENING mf.pcg
 FILE TYPE:PCG   UNIT   27   STATUS:OLD    
 FORMAT:FORMATTED              ACCESS:SEQUENTIAL          

 OPENING mf.ghb
 FILE TYPE:GHB   UNIT   23   STATUS:OLD    
 FORMAT:FORMATTED              ACCESS:SEQUENTIAL          

 OPENING mf.hob
 FILE TYPE:HOB   UNIT   39   STATUS:OLD    
 FORMAT:FORMATTED              ACCESS:SEQUENTIAL          

 OPENING mf.hds
 FILE TYPE:DATA(BINARY)   UNIT   51   STATUS:REPLACE
 FORMAT:BINARY                 ACCESS:SEQUENTIAL          

 OPENING mf.hob.out
 FILE TYPE:DATA   UNIT    7   STATUS:UNKNOWN
 FORMAT:FORMATTED              ACCESS:SEQUENTIAL          

 BAS -- BASIC PACKAGE, VERSION 7, 5/2/2005 INPUT READ FROM UNIT   13
 
 MODFLOW was compiled using mixed precision
 Precision of REAL variables:           6
 Precision of DOUBLE PRECISION variables:          15

 DISCRETIZATION INPUT DATA READ FROM UNIT   11
 # DIS package for  MODFLOW-2005, generated by Flopy.
    1 LAYERS       100 ROWS       200 COLUMNS
    1 STRESS PERIOD(S) IN SIMULATION
 MODEL TIME UNIT IS DAYS
 MODEL LENGTH UNIT IS METERS
  Confining bed flag for each layer:
   0

                     DELR =   169.000    

                     DELC =   165.000    



           TOP ELEVATION OF LAYER 1
 READING ON UNIT   11 WITH FORMAT: (200E15.6)          

   MODEL LAYER BOTTOM EL. =  -1250.00     FOR LAYER   1


 STRESS PERIOD     LENGTH       TIME STEPS     MULTIPLIER FOR DELT    SS FLAG
 ----------------------------------------------------------------------------
        1         36525.00        100                    1.000         SS

 STEADY-STATE SIMULATION



 
 # BAS6 package for  MODFLOW-2005, generated by Flopy.                           
 THE FREE FORMAT OPTION HAS BEEN SELECTED



                     BOUNDARY ARRAY FOR LAYER   1
 READING ON UNIT   13 WITH FORMAT: (200I10)            

 AQUIFER HEAD WILL BE SET TO  -999.99     AT ALL NO-FLOW NODES (IBOUND=0).



                       INITIAL HEAD FOR LAYER   1
 READING ON UNIT   13 WITH FORMAT: (200E15.6)          
 # OC package for  MODFLOW-2005, generated by Flopy.

 OUTPUT CONTROL IS SPECIFIED ONLY AT TIME STEPS FOR WHICH OUTPUT IS DESIRED
 COMPACT CELL-BY-CELL BUDGET FILES WILL BE WRITTEN
 AUXILIARY DATA WILL BE SAVED IN CELL-BY-CELL BUDGET FILES
 HEAD PRINT FORMAT CODE IS   0    DRAWDOWN PRINT FORMAT CODE IS   0
 HEADS WILL BE SAVED ON UNIT   51    DRAWDOWNS WILL BE SAVED ON UNIT    0

 LPF -- LAYER-PROPERTY FLOW PACKAGE, VERSION 7, 5/2/2005
         INPUT READ FROM UNIT   15
 # LPF package for  MODFLOW-2005, generated by Flopy.
 HEAD AT CELLS THAT CONVERT TO DRY= -1.00000E+30
 No named parameters

   LAYER FLAGS:
 LAYER       LAYTYP        LAYAVG         CHANI        LAYVKA        LAYWET
 ---------------------------------------------------------------------------
    1             0             0     1.000E+00             0             0

   INTERPRETATION OF LAYER FLAGS:
                        INTERBLOCK     HORIZONTAL    DATA IN
         LAYER TYPE   TRANSMISSIVITY   ANISOTROPY   ARRAY VKA   WETTABILITY
 LAYER      (LAYTYP)      (LAYAVG)       (CHANI)      (LAYVKA)      (LAYWET)
 ---------------------------------------------------------------------------
    1      CONFINED      HARMONIC     1.000E+00    VERTICAL K  NON-WETTABLE

 WETTING CAPABILITY IS NOT ACTIVE IN ANY LAYER



              HYD. COND. ALONG ROWS FOR LAYER   1
 READING ON UNIT   15 WITH FORMAT: (200E15.6)          

      VERTICAL HYD. COND. =   10.0000     FOR LAYER   1

 GHB -- GENERAL-HEAD BOUNDARY PACKAGE, VERSION 7, 5/2/2005
         INPUT READ FROM UNIT   23
 # GHB package for  MODFLOW-2005, generated by Flopy.
 No named parameters
 MAXIMUM OF   7876 ACTIVE GHB CELLS AT ONE TIME


     0 GHB parameters

 RCH -- RECHARGE PACKAGE, VERSION 7, 5/2/2005 INPUT READ FROM UNIT   19
 # RCH package for  MODFLOW-2005, generated by Flopy.
 No named parameters
 OPTION 3 -- RECHARGE TO HIGHEST ACTIVE NODE IN EACH VERTICAL COLUMN


     0 Recharge parameters

 PCG -- CONJUGATE-GRADIENT SOLUTION PACKAGE, VERSION 7, 5/2/2005
 # PCG package for  MODFLOW-2005, generated by Flopy.
 MAXIMUM OF    100 CALLS OF SOLUTION ROUTINE
 MAXIMUM OF     50 INTERNAL ITERATIONS PER CALL TO SOLUTION ROUTINE
 MATRIX PRECONDITIONING TYPE :    1



                                    SOLUTION BY THE CONJUGATE-GRADIENT METHOD
                                   -------------------------------------------
                    MAXIMUM NUMBER OF CALLS TO PCG ROUTINE =      100
                        MAXIMUM ITERATIONS PER CALL TO PCG =       50
                               MATRIX PRECONDITIONING TYPE =        1
        RELAXATION FACTOR (ONLY USED WITH PRECOND. TYPE 1) =    0.10000E+01
 PARAMETER OF POLYNOMIAL PRECOND. = 2 (2) OR IS CALCULATED :        0
                         HEAD CHANGE CRITERION FOR CLOSURE =    0.10000E-05
                     RESIDUAL CHANGE CRITERION FOR CLOSURE =    0.30000E-02
            PCG HEAD AND RESIDUAL CHANGE PRINTOUT INTERVAL =      999
     PRINTING FROM SOLVER IS LIMITED(1) OR SUPPRESSED (>1) =        3
                            STEADY-STATE DAMPING PARAMETER =    0.10000E+01
                               TRANSIENT DAMPING PARAMETER =    0.10000E+01

 OBS2BAS7 -- HEAD OBSERVATIONS, VERSION 2.0, 2/28/2006
 INPUT READ FROM UNIT  39
 # HOB package for  MODFLOW-2005, generated by Flopy.

 NUMBER OF HEADS....................................:  208
   NUMBER OF MULTILAYER HEADS.......................:    0
   MAXIMUM NUMBER OF LAYERS FOR MULTILAYER HEADS....:    0
 HEAD OBSERVATIONS WILL BE SAVED ON UNIT............:    7
 SIMULATED EQUIVALENT HEAD AT DRY CELLS WILL BE:   -999.000    

 OBSERVED HEAD DATA -- TIME OFFSETS ARE MULTIPLIED BY:   1.0000    

                    REFER.
       OBSERVATION  STRESS    TIME
  OBS#    NAME      PERIOD   OFFSET    OBSERVATION
     1 Obs_0            1    0.000      0.5000E-01
 Observation within a steady-state time step has been moved to the end of the time step.
     2 Obs_1            1    0.000      0.5000E-01
 Observation within a steady-state time step has been moved to the end of the time step.
     3 Obs_2            1    0.000      0.5000E-01
 Observation within a steady-state time step has been moved to the end of the time step.
     4 Obs_3            1    0.000      0.5000E-01
 Observation within a steady-state time step has been moved to the end of the time step.
     5 Obs_4            1    0.000      0.5000E-01
 Observation within a steady-state time step has been moved to the end of the time step.
     6 Obs_5            1    0.000      0.5000E-01
 Observation within a steady-state time step has been moved to the end of the time step.
     7 Obs_6            1    0.000      0.5000E-01
 Observation within a steady-state time step has been moved to the end of the time step.
     8 Obs_7            1    0.000      0.5000E-01
 Observation within a steady-state time step has been moved to the end of the time step.
     9 Obs_8            1    0.000      0.5000E-01
 Observation within a steady-state time step has been moved to the end of the time step.
    10 Obs_9            1    0.000      0.5000E-01
 Observation within a steady-state time step has been moved to the end of the time step.
    11 Obs_10           1    0.000      0.5000E-01
 Observation within a steady-state time step has been moved to the end of the time step.
    12 Obs_11           1    0.000      0.5000E-01
 Observation within a steady-state time step has been moved to the end of the time step.
    13 Obs_12           1    0.000      0.5000E-01
 Observation within a steady-state time step has been moved to the end of the time step.
    14 Obs_13           1    0.000      0.5000E-01
 Observation within a steady-state time step has been moved to the end of the time step.
    15 Obs_14           1    0.000      0.5000E-01
 Observation within a steady-state time step has been moved to the end of the time step.
    16 Obs_15           1    0.000      0.5000E-01
 Observation within a steady-state time step has been moved to the end of the time step.
    17 Obs_16           1    0.000      0.5000E-01
 Observation within a steady-state time step has been moved to the end of the time step.
    18 Obs_17           1    0.000      0.5000E-01
 Observation within a steady-state time step has been moved to the end of the time step.
    19 Obs_18           1    0.000      0.5000E-01
 Observation within a steady-state time step has been moved to the end of the time step.
    20 Obs_19           1    0.000      0.5000E-01
 Observation within a steady-state time step has been moved to the end of the time step.
    21 Obs_20           1    0.000       5.500    
 Observation within a steady-state time step has been moved to the end of the time step.
    22 Obs_21           1    0.000      0.5000E-01
 Observation within a steady-state time step has been moved to the end of the time step.
    23 Obs_22           1    0.000      0.5000E-01
 Observation within a steady-state time step has been moved to the end of the time step.
    24 Obs_23           1    0.000      0.5000E-01
 Observation within a steady-state time step has been moved to the end of the time step.
    25 Obs_24           1    0.000      0.5000E-01
 Observation within a steady-state time step has been moved to the end of the time step.
    26 Obs_25           1    0.000      0.5000E-01
 Observation within a steady-state time step has been moved to the end of the time step.
    27 Obs_26           1    0.000      0.5000E-01
 Observation within a steady-state time step has been moved to the end of the time step.
    28 Obs_27           1    0.000      0.5000E-01
 Observation within a steady-state time step has been moved to the end of the time step.
    29 Obs_28           1    0.000      0.5000E-01
 Observation within a steady-state time step has been moved to the end of the time step.
    30 Obs_29           1    0.000      0.5000E-01
 Observation within a steady-state time step has been moved to the end of the time step.
    31 Obs_30           1    0.000      0.5000E-01
 Observation within a steady-state time step has been moved to the end of the time step.
    32 Obs_31           1    0.000      0.5000E-01
 Observation within a steady-state time step has been moved to the end of the time step.
    33 Obs_32           1    0.000      0.5000E-01
 Observation within a steady-state time step has been moved to the end of the time step.
    34 Obs_33           1    0.000      0.5000E-01
 Observation within a steady-state time step has been moved to the end of the time step.
    35 Obs_34           1    0.000      0.5000E-01
 Observation within a steady-state time step has been moved to the end of the time step.
    36 Obs_35           1    0.000      0.5000E-01
 Observation within a steady-state time step has been moved to the end of the time step.
    37 Obs_36           1    0.000      0.5000E-01
 Observation within a steady-state time step has been moved to the end of the time step.
    38 Obs_37           1    0.000      0.5000E-01
 Observation within a steady-state time step has been moved to the end of the time step.
    39 Obs_38           1    0.000      0.5000E-01
 Observation within a steady-state time step has been moved to the end of the time step.
    40 Obs_39           1    0.000      0.5000E-01
 Observation within a steady-state time step has been moved to the end of the time step.
    41 Obs_40           1    0.000      0.5000E-01
 Observation within a steady-state time step has been moved to the end of the time step.
    42 Obs_41           1    0.000      0.5000E-01
 Observation within a steady-state time step has been moved to the end of the time step.
    43 Obs_42           1    0.000      0.2000    
 Observation within a steady-state time step has been moved to the end of the time step.
    44 Obs_43           1    0.000      0.4000    
 Observation within a steady-state time step has been moved to the end of the time step.
    45 Obs_44           1    0.000      0.3000    
 Observation within a steady-state time step has been moved to the end of the time step.
    46 Obs_45           1    0.000      0.6000    
 Observation within a steady-state time step has been moved to the end of the time step.
    47 Obs_46           1    0.000       2.300    
 Observation within a steady-state time step has been moved to the end of the time step.
    48 Obs_47           1    0.000       2.600    
 Observation within a steady-state time step has been moved to the end of the time step.
    49 Obs_48           1    0.000       3.500    
 Observation within a steady-state time step has been moved to the end of the time step.
    50 Obs_49           1    0.000      0.5000E-01
 Observation within a steady-state time step has been moved to the end of the time step.
    51 Obs_50           1    0.000      0.5000E-01
 Observation within a steady-state time step has been moved to the end of the time step.
    52 Obs_51           1    0.000      0.5000E-01
 Observation within a steady-state time step has been moved to the end of the time step.
    53 Obs_52           1    0.000      0.5000E-01
 Observation within a steady-state time step has been moved to the end of the time step.
    54 Obs_53           1    0.000       1.200    
 Observation within a steady-state time step has been moved to the end of the time step.
    55 Obs_54           1    0.000      0.5000E-01
 Observation within a steady-state time step has been moved to the end of the time step.
    56 Obs_55           1    0.000       3.600    
 Observation within a steady-state time step has been moved to the end of the time step.
    57 Obs_56           1    0.000       2.430    
 Observation within a steady-state time step has been moved to the end of the time step.
    58 Obs_57           1    0.000      0.5000E-01
 Observation within a steady-state time step has been moved to the end of the time step.
    59 Obs_58           1    0.000      0.5000E-01
 Observation within a steady-state time step has been moved to the end of the time step.
    60 Obs_59           1    0.000      0.5000E-01
 Observation within a steady-state time step has been moved to the end of the time step.
    61 Obs_60           1    0.000      0.5000E-01
 Observation within a steady-state time step has been moved to the end of the time step.
    62 Obs_61           1    0.000      0.5000E-01
 Observation within a steady-state time step has been moved to the end of the time step.
    63 Obs_62           1    0.000       1.900    
 Observation within a steady-state time step has been moved to the end of the time step.
    64 Obs_63           1    0.000       1.300    
 Observation within a steady-state time step has been moved to the end of the time step.
    65 Obs_64           1    0.000      0.9000    
 Observation within a steady-state time step has been moved to the end of the time step.
    66 Obs_65           1    0.000       44.70    
 Observation within a steady-state time step has been moved to the end of the time step.
    67 Obs_66           1    0.000       2.600    
 Observation within a steady-state time step has been moved to the end of the time step.
    68 Obs_67           1    0.000       1.700    
 Observation within a steady-state time step has been moved to the end of the time step.
    69 Obs_68           1    0.000       3.000    
 Observation within a steady-state time step has been moved to the end of the time step.
    70 Obs_69           1    0.000       1.800    
 Observation within a steady-state time step has been moved to the end of the time step.
    71 Obs_70           1    0.000      0.5000E-01
 Observation within a steady-state time step has been moved to the end of the time step.
    72 Obs_71           1    0.000      0.5000E-01
 Observation within a steady-state time step has been moved to the end of the time step.
    73 Obs_72           1    0.000      0.5000E-01
 Observation within a steady-state time step has been moved to the end of the time step.
    74 Obs_73           1    0.000      0.5000E-01
 Observation within a steady-state time step has been moved to the end of the time step.
    75 Obs_74           1    0.000       5.900    
 Observation within a steady-state time step has been moved to the end of the time step.
    76 Obs_75           1    0.000       19.20    
 Observation within a steady-state time step has been moved to the end of the time step.
    77 Obs_76           1    0.000      0.5000E-01
 Observation within a steady-state time step has been moved to the end of the time step.
    78 Obs_77           1    0.000       8.000    
 Observation within a steady-state time step has been moved to the end of the time step.
    79 Obs_78           1    0.000       8.200    
 Observation within a steady-state time step has been moved to the end of the time step.
    80 Obs_79           1    0.000       5.750    
 Observation within a steady-state time step has been moved to the end of the time step.
    81 Obs_80           1    0.000       34.20    
 Observation within a steady-state time step has been moved to the end of the time step.
    82 Obs_81           1    0.000       3.200    
 Observation within a steady-state time step has been moved to the end of the time step.
    83 Obs_82           1    0.000       16.85    
 Observation within a steady-state time step has been moved to the end of the time step.
    84 Obs_83           1    0.000       25.40    
 Observation within a steady-state time step has been moved to the end of the time step.
    85 Obs_84           1    0.000       1.800    
 Observation within a steady-state time step has been moved to the end of the time step.
    86 Obs_85           1    0.000       8.800    
 Observation within a steady-state time step has been moved to the end of the time step.
    87 Obs_86           1    0.000      0.8500    
 Observation within a steady-state time step has been moved to the end of the time step.
    88 Obs_87           1    0.000      0.9000    
 Observation within a steady-state time step has been moved to the end of the time step.
    89 Obs_88           1    0.000      0.6000    
 Observation within a steady-state time step has been moved to the end of the time step.
    90 Obs_89           1    0.000       20.30    
 Observation within a steady-state time step has been moved to the end of the time step.
    91 Obs_90           1    0.000       1.800    
 Observation within a steady-state time step has been moved to the end of the time step.
    92 Obs_91           1    0.000       1.628    
 Observation within a steady-state time step has been moved to the end of the time step.
    93 Obs_92           1    0.000      0.3000    
 Observation within a steady-state time step has been moved to the end of the time step.
    94 Obs_93           1    0.000      0.5000E-01
 Observation within a steady-state time step has been moved to the end of the time step.
    95 Obs_94           1    0.000      0.5000E-01
 Observation within a steady-state time step has been moved to the end of the time step.
    96 Obs_95           1    0.000      0.5000E-01
 Observation within a steady-state time step has been moved to the end of the time step.
    97 Obs_96           1    0.000      0.5000E-01
 Observation within a steady-state time step has been moved to the end of the time step.
    98 Obs_97           1    0.000      0.5000E-01
 Observation within a steady-state time step has been moved to the end of the time step.
    99 Obs_98           1    0.000      0.5000E-01
 Observation within a steady-state time step has been moved to the end of the time step.
   100 Obs_99           1    0.000      0.5000    
 Observation within a steady-state time step has been moved to the end of the time step.
   101 Obs_100          1    0.000       1.000    
 Observation within a steady-state time step has been moved to the end of the time step.
   102 Obs_101          1    0.000       62.50    
 Observation within a steady-state time step has been moved to the end of the time step.
   103 Obs_102          1    0.000      0.5000E-01
 Observation within a steady-state time step has been moved to the end of the time step.
   104 Obs_103          1    0.000      0.5000E-01
 Observation within a steady-state time step has been moved to the end of the time step.
   105 Obs_104          1    0.000       15.80    
 Observation within a steady-state time step has been moved to the end of the time step.
   106 Obs_105          1    0.000      0.5000E-01
 Observation within a steady-state time step has been moved to the end of the time step.
   107 Obs_106          1    0.000      0.5000E-01
 Observation within a steady-state time step has been moved to the end of the time step.
   108 Obs_107          1    0.000      0.5000E-01
 Observation within a steady-state time step has been moved to the end of the time step.
   109 Obs_108          1    0.000       1.200    
 Observation within a steady-state time step has been moved to the end of the time step.
   110 Obs_109          1    0.000       7.300    
 Observation within a steady-state time step has been moved to the end of the time step.
   111 Obs_110          1    0.000       7.300    
 Observation within a steady-state time step has been moved to the end of the time step.
   112 Obs_111          1    0.000       9.800    
 Observation within a steady-state time step has been moved to the end of the time step.
   113 Obs_112          1    0.000       16.47    
 Observation within a steady-state time step has been moved to the end of the time step.
   114 Obs_113          1    0.000       1.200    
 Observation within a steady-state time step has been moved to the end of the time step.
   115 Obs_114          1    0.000       3.000    
 Observation within a steady-state time step has been moved to the end of the time step.
   116 Obs_115          1    0.000      0.5000E-01
 Observation within a steady-state time step has been moved to the end of the time step.
   117 Obs_116          1    0.000       6.650    
 Observation within a steady-state time step has been moved to the end of the time step.
   118 Obs_117          1    0.000      0.5000E-01
 Observation within a steady-state time step has been moved to the end of the time step.
   119 Obs_118          1    0.000      0.5000E-01
 Observation within a steady-state time step has been moved to the end of the time step.
   120 Obs_119          1    0.000      0.5000E-01
 Observation within a steady-state time step has been moved to the end of the time step.
   121 Obs_120          1    0.000      0.5000E-01
 Observation within a steady-state time step has been moved to the end of the time step.
   122 Obs_121          1    0.000      0.5000E-01
 Observation within a steady-state time step has been moved to the end of the time step.
   123 Obs_122          1    0.000       2.700    
 Observation within a steady-state time step has been moved to the end of the time step.
   124 Obs_123          1    0.000       6.100    
 Observation within a steady-state time step has been moved to the end of the time step.
   125 Obs_124          1    0.000      0.1000    
 Observation within a steady-state time step has been moved to the end of the time step.
   126 Obs_125          1    0.000      0.5000E-01
 Observation within a steady-state time step has been moved to the end of the time step.
   127 Obs_126          1    0.000      0.5000E-01
 Observation within a steady-state time step has been moved to the end of the time step.
   128 Obs_127          1    0.000      0.5000E-01
 Observation within a steady-state time step has been moved to the end of the time step.
   129 Obs_128          1    0.000      0.5000E-01
 Observation within a steady-state time step has been moved to the end of the time step.
   130 Obs_129          1    0.000      0.5000E-01
 Observation within a steady-state time step has been moved to the end of the time step.
   131 Obs_130          1    0.000      0.5000E-01
 Observation within a steady-state time step has been moved to the end of the time step.
   132 Obs_131          1    0.000       8.100    
 Observation within a steady-state time step has been moved to the end of the time step.
   133 Obs_132          1    0.000       8.200    
 Observation within a steady-state time step has been moved to the end of the time step.
   134 Obs_133          1    0.000      0.5000E-01
 Observation within a steady-state time step has been moved to the end of the time step.
   135 Obs_134          1    0.000       4.300    
 Observation within a steady-state time step has been moved to the end of the time step.
   136 Obs_135          1    0.000       5.567    
 Observation within a steady-state time step has been moved to the end of the time step.
   137 Obs_136          1    0.000      0.5000E-01
 Observation within a steady-state time step has been moved to the end of the time step.
   138 Obs_137          1    0.000      0.5000E-01
 Observation within a steady-state time step has been moved to the end of the time step.
   139 Obs_138          1    0.000      0.5000E-01
 Observation within a steady-state time step has been moved to the end of the time step.
   140 Obs_139          1    0.000      0.5000E-01
 Observation within a steady-state time step has been moved to the end of the time step.
   141 Obs_140          1    0.000      0.5000E-01
 Observation within a steady-state time step has been moved to the end of the time step.
   142 Obs_141          1    0.000      0.5000E-01
 Observation within a steady-state time step has been moved to the end of the time step.
   143 Obs_142          1    0.000       5.500    
 Observation within a steady-state time step has been moved to the end of the time step.
   144 Obs_143          1    0.000       7.300    
 Observation within a steady-state time step has been moved to the end of the time step.
   145 Obs_144          1    0.000       6.000    
 Observation within a steady-state time step has been moved to the end of the time step.
   146 Obs_145          1    0.000      0.5000E-01
 Observation within a steady-state time step has been moved to the end of the time step.
   147 Obs_146          1    0.000      0.5000E-01
 Observation within a steady-state time step has been moved to the end of the time step.
   148 Obs_147          1    0.000      0.5000E-01
 Observation within a steady-state time step has been moved to the end of the time step.
   149 Obs_148          1    0.000      0.5000E-01
 Observation within a steady-state time step has been moved to the end of the time step.
   150 Obs_149          1    0.000      0.5000E-01
 Observation within a steady-state time step has been moved to the end of the time step.
   151 Obs_150          1    0.000      0.5000E-01
 Observation within a steady-state time step has been moved to the end of the time step.
   152 Obs_151          1    0.000      0.5000E-01
 Observation within a steady-state time step has been moved to the end of the time step.
   153 Obs_152          1    0.000      0.5000E-01
 Observation within a steady-state time step has been moved to the end of the time step.
   154 Obs_153          1    0.000      0.5000E-01
 Observation within a steady-state time step has been moved to the end of the time step.
   155 Obs_154          1    0.000      0.5000E-01
 Observation within a steady-state time step has been moved to the end of the time step.
   156 Obs_155          1    0.000      0.5000E-01
 Observation within a steady-state time step has been moved to the end of the time step.
   157 Obs_156          1    0.000      0.5000E-01
 Observation within a steady-state time step has been moved to the end of the time step.
   158 Obs_157          1    0.000      0.5000E-01
 Observation within a steady-state time step has been moved to the end of the time step.
   159 Obs_158          1    0.000      0.5000E-01
 Observation within a steady-state time step has been moved to the end of the time step.
   160 Obs_159          1    0.000      0.5000E-01
 Observation within a steady-state time step has been moved to the end of the time step.
   161 Obs_160          1    0.000      0.5000E-01
 Observation within a steady-state time step has been moved to the end of the time step.
   162 Obs_161          1    0.000      0.5000E-01
 Observation within a steady-state time step has been moved to the end of the time step.
   163 Obs_162          1    0.000      0.5000E-01
 Observation within a steady-state time step has been moved to the end of the time step.
   164 Obs_163          1    0.000      0.5000E-01
 Observation within a steady-state time step has been moved to the end of the time step.
   165 Obs_164          1    0.000      0.5000E-01
 Observation within a steady-state time step has been moved to the end of the time step.
   166 Obs_165          1    0.000      0.5000E-01
 Observation within a steady-state time step has been moved to the end of the time step.
   167 Obs_166          1    0.000      0.5000E-01
 Observation within a steady-state time step has been moved to the end of the time step.
   168 Obs_167          1    0.000      0.5000E-01
 Observation within a steady-state time step has been moved to the end of the time step.
   169 Obs_168          1    0.000      0.5000E-01
 Observation within a steady-state time step has been moved to the end of the time step.
   170 Obs_169          1    0.000      0.5000E-01
 Observation within a steady-state time step has been moved to the end of the time step.
   171 Obs_170          1    0.000      0.5000E-01
 Observation within a steady-state time step has been moved to the end of the time step.
   172 Obs_171          1    0.000      0.5000E-01
 Observation within a steady-state time step has been moved to the end of the time step.
   173 Obs_172          1    0.000      0.5000E-01
 Observation within a steady-state time step has been moved to the end of the time step.
   174 Obs_173          1    0.000      0.5000E-01
 Observation within a steady-state time step has been moved to the end of the time step.
   175 Obs_174          1    0.000      0.5000E-01
 Observation within a steady-state time step has been moved to the end of the time step.
   176 Obs_175          1    0.000      0.5000E-01
 Observation within a steady-state time step has been moved to the end of the time step.
   177 Obs_176          1    0.000      0.5000E-01
 Observation within a steady-state time step has been moved to the end of the time step.
   178 Obs_177          1    0.000       2.700    
 Observation within a steady-state time step has been moved to the end of the time step.
   179 Obs_178          1    0.000       5.300    
 Observation within a steady-state time step has been moved to the end of the time step.
   180 Obs_179          1    0.000      0.5000E-01
 Observation within a steady-state time step has been moved to the end of the time step.
   181 Obs_180          1    0.000      0.5000E-01
 Observation within a steady-state time step has been moved to the end of the time step.
   182 Obs_181          1    0.000      0.5000E-01
 Observation within a steady-state time step has been moved to the end of the time step.
   183 Obs_182          1    0.000      0.5000E-01
 Observation within a steady-state time step has been moved to the end of the time step.
   184 Obs_183          1    0.000      0.5000E-01
 Observation within a steady-state time step has been moved to the end of the time step.
   185 Obs_184          1    0.000      0.5000E-01
 Observation within a steady-state time step has been moved to the end of the time step.
   186 Obs_185          1    0.000      0.5000E-01
 Observation within a steady-state time step has been moved to the end of the time step.
   187 Obs_186          1    0.000      0.5000E-01
 Observation within a steady-state time step has been moved to the end of the time step.
   188 Obs_187          1    0.000       3.100    
 Observation within a steady-state time step has been moved to the end of the time step.
   189 Obs_188          1    0.000      0.5000E-01
 Observation within a steady-state time step has been moved to the end of the time step.
   190 Obs_189          1    0.000       3.000    
 Observation within a steady-state time step has been moved to the end of the time step.
   191 Obs_190          1    0.000      0.5000E-01
 Observation within a steady-state time step has been moved to the end of the time step.
   192 Obs_191          1    0.000      0.5000E-01
 Observation within a steady-state time step has been moved to the end of the time step.
   193 Obs_192          1    0.000      0.5000E-01
 Observation within a steady-state time step has been moved to the end of the time step.
   194 Obs_193          1    0.000      0.5000E-01
 Observation within a steady-state time step has been moved to the end of the time step.
   195 Obs_194          1    0.000      0.5000E-01
 Observation within a steady-state time step has been moved to the end of the time step.
   196 Obs_195          1    0.000      0.5000E-01
 Observation within a steady-state time step has been moved to the end of the time step.
   197 Obs_196          1    0.000      0.5000E-01
 Observation within a steady-state time step has been moved to the end of the time step.
   198 Obs_197          1    0.000       5.700    
 Observation within a steady-state time step has been moved to the end of the time step.
   199 Obs_198          1    0.000      0.5000E-01
 Observation within a steady-state time step has been moved to the end of the time step.
   200 Obs_199          1    0.000      0.5000E-01
 Observation within a steady-state time step has been moved to the end of the time step.
   201 Obs_200          1    0.000      0.5000E-01
 Observation within a steady-state time step has been moved to the end of the time step.
   202 Obs_201          1    0.000      0.5000E-01
 Observation within a steady-state time step has been moved to the end of the time step.
   203 Obs_202          1    0.000      0.5000E-01
 Observation within a steady-state time step has been moved to the end of the time step.
   204 Obs_203          1    0.000      0.5000E-01
 Observation within a steady-state time step has been moved to the end of the time step.
   205 Obs_204          1    0.000      0.5000E-01
 Observation within a steady-state time step has been moved to the end of the time step.
   206 Obs_205          1    0.000      0.5000E-01
 Observation within a steady-state time step has been moved to the end of the time step.
   207 Obs_206          1    0.000      0.5000E-01
 Observation within a steady-state time step has been moved to the end of the time step.
   208 Obs_207          1    0.000      0.5000E-01
 Observation within a steady-state time step has been moved to the end of the time step.

                                                     HEAD CHANGE
                                                      REFERENCE
        OBSERVATION                   ROW     COL    OBSERVATION
  OBS#     NAME       LAY  ROW  COL  OFFSET  OFFSET   (IF > 0)
     1  Obs_0           1    6    7   0.000   0.000        0
     2  Obs_1           1   16    7   0.000   0.000        0
     3  Obs_2           1   26    7   0.000   0.000        0
     4  Obs_3           1   36    7   0.000   0.000        0
     5  Obs_4           1   46    7   0.000   0.000        0
     6  Obs_5           1   56    7   0.000   0.000        0
     7  Obs_6           1   66    7   0.000   0.000        0
     8  Obs_7           1   76    7   0.000   0.000        0
     9  Obs_8           1   86    7   0.000   0.000        0
    10  Obs_9           1   96    7   0.000   0.000        0
    11  Obs_10          1    6   17   0.000   0.000        0
    12  Obs_11          1   16   17   0.000   0.000        0
    13  Obs_12          1   26   17   0.000   0.000        0
    14  Obs_13          1   36   17   0.000   0.000        0
    15  Obs_14          1   46   17   0.000   0.000        0
    16  Obs_15          1   56   17   0.000   0.000        0
    17  Obs_16          1   66   17   0.000   0.000        0
    18  Obs_17          1   76   17   0.000   0.000        0
    19  Obs_18          1   86   17   0.000   0.000        0
    20  Obs_19          1   96   17   0.000   0.000        0
    21  Obs_20          1   55   22   0.000   0.000        0
    22  Obs_21          1    6   27   0.000   0.000        0
    23  Obs_22          1   16   27   0.000   0.000        0
    24  Obs_23          1   26   27   0.000   0.000        0
    25  Obs_24          1   36   27   0.000   0.000        0
    26  Obs_25          1   46   27   0.000   0.000        0
    27  Obs_26          1   76   27   0.000   0.000        0
    28  Obs_27          1   86   27   0.000   0.000        0
    29  Obs_28          1   96   27   0.000   0.000        0
    30  Obs_29          1    6   37   0.000   0.000        0
    31  Obs_30          1   16   37   0.000   0.000        0
    32  Obs_31          1   26   37   0.000   0.000        0
    33  Obs_32          1   36   37   0.000   0.000        0
    34  Obs_33          1   76   37   0.000   0.000        0
    35  Obs_34          1   86   37   0.000   0.000        0
    36  Obs_35          1   96   37   0.000   0.000        0
    37  Obs_36          1    6   47   0.000   0.000        0
    38  Obs_37          1   16   47   0.000   0.000        0
    39  Obs_38          1   26   47   0.000   0.000        0
    40  Obs_39          1   36   47   0.000   0.000        0
    41  Obs_40          1   86   47   0.000   0.000        0
    42  Obs_41          1   96   47   0.000   0.000        0
    43  Obs_42          1   78   50   0.000   0.000        0
    44  Obs_43          1   81   52   0.000   0.000        0
    45  Obs_44          1   86   52   0.000   0.000        0
    46  Obs_45          1   85   53   0.000   0.000        0
    47  Obs_46          1   71   55   0.000   0.000        0
    48  Obs_47          1   74   55   0.000   0.000        0
    49  Obs_48          1   70   56   0.000   0.000        0
    50  Obs_49          1    6   57   0.000   0.000        0
    51  Obs_50          1   16   57   0.000   0.000        0
    52  Obs_51          1   26   57   0.000   0.000        0
    53  Obs_52          1   36   57   0.000   0.000        0
    54  Obs_53          1   77   57   0.000   0.000        0
    55  Obs_54          1   96   57   0.000   0.000        0
    56  Obs_55          1   70   59   0.000   0.000        0
    57  Obs_56          1   76   60   0.000   0.000        0
    58  Obs_57          1    6   67   0.000   0.000        0
    59  Obs_58          1   16   67   0.000   0.000        0
    60  Obs_59          1   26   67   0.000   0.000        0
    61  Obs_60          1   36   67   0.000   0.000        0
    62  Obs_61          1   96   67   0.000   0.000        0
    63  Obs_62          1   79   69   0.000   0.000        0
    64  Obs_63          1   72   71   0.000   0.000        0
    65  Obs_64          1   79   71   0.000   0.000        0
    66  Obs_65          1   64   72   0.000   0.000        0
    67  Obs_66          1   79   72   0.000   0.000        0
    68  Obs_67          1   79   73   0.000   0.000        0
    69  Obs_68          1   63   75   0.000   0.000        0
    70  Obs_69          1   78   75   0.000   0.000        0
    71  Obs_70          1    6   77   0.000   0.000        0
    72  Obs_71          1   16   77   0.000   0.000        0
    73  Obs_72          1   26   77   0.000   0.000        0
    74  Obs_73          1   36   77   0.000   0.000        0
    75  Obs_74          1   56   77   0.000   0.000        0
    76  Obs_75          1   60   77   0.000   0.000        0
    77  Obs_76          1   96   77   0.000   0.000        0
    78  Obs_77          1   54   78   0.000   0.000        0
    79  Obs_78          1   58   78   0.000   0.000        0
    80  Obs_79          1   59   78   0.000   0.000        0
    81  Obs_80          1   54   79   0.000   0.000        0
    82  Obs_81          1   60   79   0.000   0.000        0
    83  Obs_82          1   52   80   0.000   0.000        0
    84  Obs_83          1   57   80   0.000   0.000        0
    85  Obs_84          1   60   80   0.000   0.000        0
    86  Obs_85          1   59   81   0.000   0.000        0
    87  Obs_86          1   64   81   0.000   0.000        0
    88  Obs_87          1   65   81   0.000   0.000        0
    89  Obs_88          1   84   81   0.000   0.000        0
    90  Obs_89          1   56   82   0.000   0.000        0
    91  Obs_90          1   62   82   0.000   0.000        0
    92  Obs_91          1   64   82   0.000   0.000        0
    93  Obs_92          1   68   85   0.000   0.000        0
    94  Obs_93          1    6   87   0.000   0.000        0
    95  Obs_94          1   16   87   0.000   0.000        0
    96  Obs_95          1   26   87   0.000   0.000        0
    97  Obs_96          1   36   87   0.000   0.000        0
    98  Obs_97          1   86   87   0.000   0.000        0
    99  Obs_98          1   96   87   0.000   0.000        0
   100  Obs_99          1   76   88   0.000   0.000        0
   101  Obs_100         1   63   89   0.000   0.000        0
   102  Obs_101         1   36   96   0.000   0.000        0
   103  Obs_102         1    6   97   0.000   0.000        0
   104  Obs_103         1   16   97   0.000   0.000        0
   105  Obs_104         1   51   97   0.000   0.000        0
   106  Obs_105         1   76   97   0.000   0.000        0
   107  Obs_106         1   86   97   0.000   0.000        0
   108  Obs_107         1   96   97   0.000   0.000        0
   109  Obs_108         1   29   98   0.000   0.000        0
   110  Obs_109         1   30   98   0.000   0.000        0
   111  Obs_110         1   31   98   0.000   0.000        0
   112  Obs_111         1   32   99   0.000   0.000        0
   113  Obs_112         1   33   99   0.000   0.000        0
   114  Obs_113         1   27  100   0.000   0.000        0
   115  Obs_114         1   29  101   0.000   0.000        0
   116  Obs_115         1    6  107   0.000   0.000        0
   117  Obs_116         1   34  107   0.000   0.000        0
   118  Obs_117         1   56  107   0.000   0.000        0
   119  Obs_118         1   66  107   0.000   0.000        0
   120  Obs_119         1   76  107   0.000   0.000        0
   121  Obs_120         1   86  107   0.000   0.000        0
   122  Obs_121         1   96  107   0.000   0.000        0
   123  Obs_122         1   42  110   0.000   0.000        0
   124  Obs_123         1   41  112   0.000   0.000        0
   125  Obs_124         1   34  114   0.000   0.000        0
   126  Obs_125         1    6  117   0.000   0.000        0
   127  Obs_126         1   56  117   0.000   0.000        0
   128  Obs_127         1   66  117   0.000   0.000        0
   129  Obs_128         1   76  117   0.000   0.000        0
   130  Obs_129         1   86  117   0.000   0.000        0
   131  Obs_130         1   96  117   0.000   0.000        0
   132  Obs_131         1   17  122   0.000   0.000        0
   133  Obs_132         1   17  123   0.000   0.000        0
   134  Obs_133         1    6  127   0.000   0.000        0
   135  Obs_134         1   26  127   0.000   0.000        0
   136  Obs_135         1   27  127   0.000   0.000        0
   137  Obs_136         1   46  127   0.000   0.000        0
   138  Obs_137         1   56  127   0.000   0.000        0
   139  Obs_138         1   66  127   0.000   0.000        0
   140  Obs_139         1   76  127   0.000   0.000        0
   141  Obs_140         1   86  127   0.000   0.000        0
   142  Obs_141         1   96  127   0.000   0.000        0
   143  Obs_142         1   27  128   0.000   0.000        0
   144  Obs_143         1   36  133   0.000   0.000        0
   145  Obs_144         1   37  133   0.000   0.000        0
   146  Obs_145         1    6  137   0.000   0.000        0
   147  Obs_146         1   16  137   0.000   0.000        0
   148  Obs_147         1   46  137   0.000   0.000        0
   149  Obs_148         1   56  137   0.000   0.000        0
   150  Obs_149         1   66  137   0.000   0.000        0
   151  Obs_150         1   76  137   0.000   0.000        0
   152  Obs_151         1   86  137   0.000   0.000        0
   153  Obs_152         1   96  137   0.000   0.000        0
   154  Obs_153         1    6  147   0.000   0.000        0
   155  Obs_154         1   36  147   0.000   0.000        0
   156  Obs_155         1   46  147   0.000   0.000        0
   157  Obs_156         1   56  147   0.000   0.000        0
   158  Obs_157         1   66  147   0.000   0.000        0
   159  Obs_158         1   76  147   0.000   0.000        0
   160  Obs_159         1   86  147   0.000   0.000        0
   161  Obs_160         1   96  147   0.000   0.000        0
   162  Obs_161         1    6  157   0.000   0.000        0
   163  Obs_162         1   36  157   0.000   0.000        0
   164  Obs_163         1   46  157   0.000   0.000        0
   165  Obs_164         1   56  157   0.000   0.000        0
   166  Obs_165         1   66  157   0.000   0.000        0
   167  Obs_166         1   76  157   0.000   0.000        0
   168  Obs_167         1   86  157   0.000   0.000        0
   169  Obs_168         1   96  157   0.000   0.000        0
   170  Obs_169         1    6  167   0.000   0.000        0
   171  Obs_170         1   16  167   0.000   0.000        0
   172  Obs_171         1   46  167   0.000   0.000        0
   173  Obs_172         1   56  167   0.000   0.000        0
   174  Obs_173         1   66  167   0.000   0.000        0
   175  Obs_174         1   76  167   0.000   0.000        0
   176  Obs_175         1   86  167   0.000   0.000        0
   177  Obs_176         1   96  167   0.000   0.000        0
   178  Obs_177         1   19  169   0.000   0.000        0
   179  Obs_178         1   30  174   0.000   0.000        0
   180  Obs_179         1    6  177   0.000   0.000        0
   181  Obs_180         1   36  177   0.000   0.000        0
   182  Obs_181         1   46  177   0.000   0.000        0
   183  Obs_182         1   56  177   0.000   0.000        0
   184  Obs_183         1   66  177   0.000   0.000        0
   185  Obs_184         1   76  177   0.000   0.000        0
   186  Obs_185         1   86  177   0.000   0.000        0
   187  Obs_186         1   96  177   0.000   0.000        0
   188  Obs_187         1   16  186   0.000   0.000        0
   189  Obs_188         1    6  187   0.000   0.000        0
   190  Obs_189         1   15  187   0.000   0.000        0
   191  Obs_190         1   36  187   0.000   0.000        0
   192  Obs_191         1   46  187   0.000   0.000        0
   193  Obs_192         1   56  187   0.000   0.000        0
   194  Obs_193         1   66  187   0.000   0.000        0
   195  Obs_194         1   76  187   0.000   0.000        0
   196  Obs_195         1   86  187   0.000   0.000        0
   197  Obs_196         1   96  187   0.000   0.000        0
   198  Obs_197         1   24  188   0.000   0.000        0
   199  Obs_198         1    6  197   0.000   0.000        0
   200  Obs_199         1   16  197   0.000   0.000        0
   201  Obs_200         1   26  197   0.000   0.000        0
   202  Obs_201         1   36  197   0.000   0.000        0
   203  Obs_202         1   46  197   0.000   0.000        0
   204  Obs_203         1   56  197   0.000   0.000        0
   205  Obs_204         1   66  197   0.000   0.000        0
   206  Obs_205         1   76  197   0.000   0.000        0
   207  Obs_206         1   86  197   0.000   0.000        0
   208  Obs_207         1   96  197   0.000   0.000        0
1
                            STRESS PERIOD NO.    1, LENGTH =   36525.00    
                            -----------------------------------------------

                              NUMBER OF TIME STEPS =   100

                               MULTIPLIER FOR DELT =     1.000

                            INITIAL TIME STEP SIZE =   365.2500    

 BOUND. NO. LAYER   ROW   COL     STAGE      CONDUCTANCE         
 ----------------------------------------------------------------
      1      1      2     90      0.1000E-01       62.50    
      2      1      2     91      0.1000E-01       62.50    
      3      1      2     92      0.1000E-01       62.50    
      4      1      2     93      0.1000E-01       62.50    
      5      1      2     94      0.1000E-01       62.50    
      6      1      2     95      0.1000E-01       62.50    
      7      1      2     96      0.1000E-01       62.50    
      8      1      2     97      0.1000E-01       62.50    
      9      1      2     98      0.1000E-01       62.50    
     10      1      2     99      0.1000E-01       62.50    
     11      1      2    100      0.1000E-01       62.50    
     12      1      2    101      0.1000E-01       62.50    
     13      1      2    102      0.1000E-01       62.50    
     14      1      2    103      0.1000E-01       62.50    
     15      1      2    104      0.1000E-01       62.50    
     16      1      2    105      0.1000E-01       62.50    
     17      1      2    106      0.1000E-01       62.50    
     18      1      2    107      0.1000E-01       62.50    
     19      1      2    108      0.1000E-01       62.50    
     20      1      2    109      0.1000E-01       62.50    
     21      1      2    110      0.1000E-01       62.50    
     22      1      2    111      0.1000E-01       62.50    
     23      1      2    112      0.1000E-01       62.50    
     24      1      2    113      0.1000E-01       62.50    
     25      1      2    114      0.1000E-01       62.50    
     26      1      2    115      0.1000E-01       62.50    
     27      1      2    116      0.1000E-01       62.50    
     28      1      2    117      0.1000E-01       62.50    
     29      1      2    118      0.1000E-01       62.50    
     30      1      2    119      0.1000E-01       62.50    
     31      1      2    120      0.1000E-01       62.50    
     32      1      2    121      0.1000E-01       62.50    
     33      1      2    122      0.1000E-01       62.50    
     34      1      2    123      0.1000E-01       62.50    
     35      1      2    124      0.1000E-01       62.50    
     36      1      2    125      0.1000E-01       62.50    
     37      1      2    126      0.1000E-01       62.50    
     38      1      2    127      0.1000E-01       62.50    
     39      1      2    128      0.1000E-01       62.50    
     40      1      2    129      0.1000E-01       62.50    
     41      1      2    130      0.1000E-01       62.50    
     42      1      2    131      0.1000E-01       62.50    
     43      1      2    132      0.1000E-01       62.50    
     44      1      2    133      0.1000E-01       62.50    
     45      1      2    134      0.1000E-01       62.50    
     46      1      2    135      0.1000E-01       62.50    
     47      1      2    136      0.1000E-01       62.50    
     48      1      2    137      0.1000E-01       62.50    
     49      1      2    138      0.1000E-01       62.50    
     50      1      2    139      0.1000E-01       62.50    
     51      1      2    140      0.1000E-01       62.50    
     52      1      2    141      0.1000E-01       62.50    
     53      1      2    142      0.1000E-01       62.50    
     54      1      2    143      0.1000E-01       62.50    
     55      1      2    144      0.1000E-01       62.50    
     56      1      2    145      0.1000E-01       62.50    
     57      1      2    146      0.1000E-01       62.50    
     58      1      2    147      0.1000E-01       62.50    
     59      1      2    148      0.1000E-01       62.50    
     60      1      2    149      0.1000E-01       62.50    
     61      1      2    150      0.1000E-01       62.50    
     62      1      2    151      0.1000E-01       62.50    
     63      1      2    152      0.1000E-01       62.50    
     64      1      2    153      0.1000E-01       62.50    
     65      1      2    154      0.1000E-01       62.50    
     66      1      2    155      0.1000E-01       62.50    
     67      1      2    156      0.1000E-01       62.50    
     68      1      2    157      0.1000E-01       62.50    
     69      1      2    158      0.1000E-01       62.50    
     70      1      2    159      0.1000E-01       62.50    
     71      1      2    160      0.1000E-01       62.50    
     72      1      2    161      0.1000E-01       62.50    
     73      1      2    162      0.1000E-01       62.50    
     74      1      2    163      0.1000E-01       62.50    
     75      1      2    164      0.1000E-01       62.50    
     76      1      2    165      0.1000E-01       62.50    
     77      1      2    166      0.1000E-01       62.50    
     78      1      2    167      0.1000E-01       62.50    
     79      1      2    168      0.1000E-01       62.50    
     80      1      2    169      0.1000E-01       62.50    
     81      1      2    170      0.1000E-01       62.50    
     82      1      2    171      0.1000E-01       62.50    
     83      1      2    172      0.1000E-01       62.50    
     84      1      2    173      0.1000E-01       62.50    
     85      1      2    174      0.1000E-01       62.50    
     86      1      2    175      0.1000E-01       62.50    
     87      1      2    176      0.1000E-01       62.50    
     88      1      2    177      0.1000E-01       62.50    
     89      1      2    178      0.1000E-01       62.50    
     90      1      2    179      0.1000E-01       62.50    
     91      1      2    180      0.1000E-01       62.50    
     92      1      2    181      0.1000E-01       62.50    
     93      1      2    182      0.1000E-01       62.50    
     94      1      2    183      0.1000E-01       62.50    
     95      1      2    184      0.1000E-01       62.50    
     96      1      2    185      0.1000E-01       62.50    
     97      1      2    186      0.1000E-01       62.50    
     98      1      2    187      0.1000E-01       62.50    
     99      1      2    188      0.1000E-01       62.50    
    100      1      2    189      0.1000E-01       62.50    
    101      1      2    190      0.1000E-01       62.50    
    102      1      2    191      0.1000E-01       62.50    
    103      1      2    192      0.1000E-01       62.50    
    104      1      2    193      0.1000E-01       62.50    
    105      1      2    194      0.1000E-01       62.50    
    106      1      2    195      0.1000E-01       62.50    
    107      1      2    196      0.1000E-01       62.50    
    108      1      2    197      0.1000E-01       62.50    
    109      1      2    198      0.1000E-01       62.50    
    110      1      2    199      0.1000E-01       62.50    
    111      1      3     89      0.1000E-01       62.50    
    112      1      3     90      0.1000E-01       62.50    
    113      1      3     91      0.1000E-01       62.50    
    114      1      3     92      0.1000E-01       62.50    
    115      1      3     93      0.1000E-01       62.50    
    116      1      3     94      0.1000E-01       62.50    
    117      1      3     95      0.1000E-01       62.50    
    118      1      3     96      0.1000E-01       62.50    
    119      1      3     97      0.1000E-01       62.50    
    120      1      3     98      0.1000E-01       62.50    
    121      1      3     99      0.1000E-01       62.50    
    122      1      3    100      0.1000E-01       62.50    
    123      1      3    101      0.1000E-01       62.50    
    124      1      3    102      0.1000E-01       62.50    
    125      1      3    103      0.1000E-01       62.50    
    126      1      3    104      0.1000E-01       62.50    
    127      1      3    105      0.1000E-01       62.50    
    128      1      3    106      0.1000E-01       62.50    
    129      1      3    107      0.1000E-01       62.50    
    130      1      3    108      0.1000E-01       62.50    
    131      1      3    109      0.1000E-01       62.50    
    132      1      3    110      0.1000E-01       62.50    
    133      1      3    111      0.1000E-01       62.50    
    134      1      3    112      0.1000E-01       62.50    
    135      1      3    113      0.1000E-01       62.50    
    136      1      3    114      0.1000E-01       62.50    
    137      1      3    115      0.1000E-01       62.50    
    138      1      3    116      0.1000E-01       62.50    
    139      1      3    117      0.1000E-01       62.50    
    140      1      3    118      0.1000E-01       62.50    
    141      1      3    119      0.1000E-01       62.50    
    142      1      3    120      0.1000E-01       62.50    
    143      1      3    121      0.1000E-01       62.50    
    144      1      3    122      0.1000E-01       62.50    
    145      1      3    123      0.1000E-01       62.50    
    146      1      3    124      0.1000E-01       62.50    
    147      1      3    125      0.1000E-01       62.50    
    148      1      3    126      0.1000E-01       62.50    
    149      1      3    127      0.1000E-01       62.50    
    150      1      3    128      0.1000E-01       62.50    
    151      1      3    129      0.1000E-01       62.50    
    152      1      3    130      0.1000E-01       62.50    
    153      1      3    131      0.1000E-01       62.50    
    154      1      3    132      0.1000E-01       62.50    
    155      1      3    133      0.1000E-01       62.50    
    156      1      3    134      0.1000E-01       62.50    
    157      1      3    135      0.1000E-01       62.50    
    158      1      3    136      0.1000E-01       62.50    
    159      1      3    137      0.1000E-01       62.50    
    160      1      3    138      0.1000E-01       62.50    
    161      1      3    139      0.1000E-01       62.50    
    162      1      3    140      0.1000E-01       62.50    
    163      1      3    141      0.1000E-01       62.50    
    164      1      3    142      0.1000E-01       62.50    
    165      1      3    143      0.1000E-01       62.50    
    166      1      3    144      0.1000E-01       62.50    
    167      1      3    145      0.1000E-01       62.50    
    168      1      3    146      0.1000E-01       62.50    
    169      1      3    147      0.1000E-01       62.50    
    170      1      3    148      0.1000E-01       62.50    
    171      1      3    149      0.1000E-01       62.50    
    172      1      3    150      0.1000E-01       62.50    
    173      1      3    151      0.1000E-01       62.50    
    174      1      3    152      0.1000E-01       62.50    
    175      1      3    153      0.1000E-01       62.50    
    176      1      3    154      0.1000E-01       62.50    
    177      1      3    155      0.1000E-01       62.50    
    178      1      3    156      0.1000E-01       62.50    
    179      1      3    157      0.1000E-01       62.50    
    180      1      3    158      0.1000E-01       62.50    
    181      1      3    159      0.1000E-01       62.50    
    182      1      3    160      0.1000E-01       62.50    
    183      1      3    161      0.1000E-01       62.50    
    184      1      3    162      0.1000E-01       62.50    
    185      1      3    163      0.1000E-01       62.50    
    186      1      3    164      0.1000E-01       62.50    
    187      1      3    165      0.1000E-01       62.50    
    188      1      3    166      0.1000E-01       62.50    
    189      1      3    167      0.1000E-01       62.50    
    190      1      3    168      0.1000E-01       62.50    
    191      1      3    169      0.1000E-01       62.50    
    192      1      3    170      0.1000E-01       62.50    
    193      1      3    171      0.1000E-01       62.50    
    194      1      3    172      0.1000E-01       62.50    
    195      1      3    173      0.1000E-01       62.50    
    196      1      3    174      0.1000E-01       62.50    
    197      1      3    175      0.1000E-01       62.50    
    198      1      3    176      0.1000E-01       62.50    
    199      1      3    177      0.1000E-01       62.50    
    200      1      3    178      0.1000E-01       62.50    
    201      1      3    179      0.1000E-01       62.50    
    202      1      3    180      0.1000E-01       62.50    
    203      1      3    181      0.1000E-01       62.50    
    204      1      3    182      0.1000E-01       62.50    
    205      1      3    183      0.1000E-01       62.50    
    206      1      3    184      0.1000E-01       62.50    
    207      1      3    185      0.1000E-01       62.50    
    208      1      3    186      0.1000E-01       62.50    
    209      1      3    187      0.1000E-01       62.50    
    210      1      3    188      0.1000E-01       62.50    
    211      1      3    189      0.1000E-01       62.50    
    212      1      3    190      0.1000E-01       62.50    
    213      1      3    191      0.1000E-01       62.50    
    214      1      3    192      0.1000E-01       62.50    
    215      1      3    193      0.1000E-01       62.50    
    216      1      3    194      0.1000E-01       62.50    
    217      1      3    195      0.1000E-01       62.50    
    218      1      3    196      0.1000E-01       62.50    
    219      1      3    197      0.1000E-01       62.50    
    220      1      3    198      0.1000E-01       62.50    
    221      1      3    199      0.1000E-01       62.50    
    222      1      4     89      0.1000E-01       62.50    
    223      1      4     90      0.1000E-01       62.50    
    224      1      4     91      0.1000E-01       62.50    
    225      1      4     92      0.1000E-01       62.50    
    226      1      4     93      0.1000E-01       62.50    
    227      1      4     94      0.1000E-01       62.50    
    228      1      4     95      0.1000E-01       62.50    
    229      1      4     96      0.1000E-01       62.50    
    230      1      4     97      0.1000E-01       62.50    
    231      1      4     98      0.1000E-01       62.50    
    232      1      4     99      0.1000E-01       62.50    
    233      1      4    100      0.1000E-01       62.50    
    234      1      4    101      0.1000E-01       62.50    
    235      1      4    102      0.1000E-01       62.50    
    236      1      4    103      0.1000E-01       62.50    
    237      1      4    104      0.1000E-01       62.50    
    238      1      4    105      0.1000E-01       62.50    
    239      1      4    106      0.1000E-01       62.50    
    240      1      4    107      0.1000E-01       62.50    
    241      1      4    108      0.1000E-01       62.50    
    242      1      4    109      0.1000E-01       62.50    
    243      1      4    110      0.1000E-01       62.50    
    244      1      4    111      0.1000E-01       62.50    
    245      1      4    112      0.1000E-01       62.50    
    246      1      4    113      0.1000E-01       62.50    
    247      1      4    114      0.1000E-01       62.50    
    248      1      4    115      0.1000E-01       62.50    
    249      1      4    116      0.1000E-01       62.50    
    250      1      4    117      0.1000E-01       62.50    
    251      1      4    118      0.1000E-01       62.50    
    252      1      4    119      0.1000E-01       62.50    
    253      1      4    120      0.1000E-01       62.50    
    254      1      4    121      0.1000E-01       62.50    
    255      1      4    122      0.1000E-01       62.50    
    256      1      4    123      0.1000E-01       62.50    
    257      1      4    124      0.1000E-01       62.50    
    258      1      4    125      0.1000E-01       62.50    
    259      1      4    126      0.1000E-01       62.50    
    260      1      4    127      0.1000E-01       62.50    
    261      1      4    128      0.1000E-01       62.50    
    262      1      4    129      0.1000E-01       62.50    
    263      1      4    130      0.1000E-01       62.50    
    264      1      4    131      0.1000E-01       62.50    
    265      1      4    132      0.1000E-01       62.50    
    266      1      4    133      0.1000E-01       62.50    
    267      1      4    134      0.1000E-01       62.50    
    268      1      4    135      0.1000E-01       62.50    
    269      1      4    136      0.1000E-01       62.50    
    270      1      4    137      0.1000E-01       62.50    
    271      1      4    138      0.1000E-01       62.50    
    272      1      4    139      0.1000E-01       62.50    
    273      1      4    140      0.1000E-01       62.50    
    274      1      4    141      0.1000E-01       62.50    
    275      1      4    142      0.1000E-01       62.50    
    276      1      4    143      0.1000E-01       62.50    
    277      1      4    144      0.1000E-01       62.50    
    278      1      4    145      0.1000E-01       62.50    
    279      1      4    146      0.1000E-01       62.50    
    280      1      4    147      0.1000E-01       62.50    
    281      1      4    148      0.1000E-01       62.50    
    282      1      4    149      0.1000E-01       62.50    
    283      1      4    150      0.1000E-01       62.50    
    284      1      4    151      0.1000E-01       62.50    
    285      1      4    152      0.1000E-01       62.50    
    286      1      4    153      0.1000E-01       62.50    
    287      1      4    154      0.1000E-01       62.50    
    288      1      4    155      0.1000E-01       62.50    
    289      1      4    156      0.1000E-01       62.50    
    290      1      4    157      0.1000E-01       62.50    
    291      1      4    158      0.1000E-01       62.50    
    292      1      4    159      0.1000E-01       62.50    
    293      1      4    160      0.1000E-01       62.50    
    294      1      4    161      0.1000E-01       62.50    
    295      1      4    162      0.1000E-01       62.50    
    296      1      4    163      0.1000E-01       62.50    
    297      1      4    164      0.1000E-01       62.50    
    298      1      4    165      0.1000E-01       62.50    
    299      1      4    166      0.1000E-01       62.50    
    300      1      4    167      0.1000E-01       62.50    
    301      1      4    168      0.1000E-01       62.50    
    302      1      4    169      0.1000E-01       62.50    
    303      1      4    170      0.1000E-01       62.50    
    304      1      4    171      0.1000E-01       62.50    
    305      1      4    172      0.1000E-01       62.50    
    306      1      4    173      0.1000E-01       62.50    
    307      1      4    174      0.1000E-01       62.50    
    308      1      4    175      0.1000E-01       62.50    
    309      1      4    176      0.1000E-01       62.50    
    310      1      4    177      0.1000E-01       62.50    
    311      1      4    178      0.1000E-01       62.50    
    312      1      4    179      0.1000E-01       62.50    
    313      1      4    180      0.1000E-01       62.50    
    314      1      4    181      0.1000E-01       62.50    
    315      1      4    182      0.1000E-01       62.50    
    316      1      4    183      0.1000E-01       62.50    
    317      1      4    184      0.1000E-01       62.50    
    318      1      4    185      0.1000E-01       62.50    
    319      1      4    186      0.1000E-01       62.50    
    320      1      4    187      0.1000E-01       62.50    
    321      1      4    188      0.1000E-01       62.50    
    322      1      4    189      0.1000E-01       62.50    
    323      1      4    190      0.1000E-01       62.50    
    324      1      4    191      0.1000E-01       62.50    
    325      1      4    192      0.1000E-01       62.50    
    326      1      4    193      0.1000E-01       62.50    
    327      1      4    194      0.1000E-01       62.50    
    328      1      4    195      0.1000E-01       62.50    
    329      1      4    196      0.1000E-01       62.50    
    330      1      4    197      0.1000E-01       62.50    
    331      1      4    198      0.1000E-01       62.50    
    332      1      4    199      0.1000E-01       62.50    
    333      1      5     88      0.1000E-01       62.50    
    334      1      5     89      0.1000E-01       62.50    
    335      1      5     90      0.1000E-01       62.50    
    336      1      5     91      0.1000E-01       62.50    
    337      1      5     92      0.1000E-01       62.50    
    338      1      5     93      0.1000E-01       62.50    
    339      1      5     94      0.1000E-01       62.50    
    340      1      5     95      0.1000E-01       62.50    
    341      1      5     96      0.1000E-01       62.50    
    342      1      5     97      0.1000E-01       62.50    
    343      1      5     98      0.1000E-01       62.50    
    344      1      5     99      0.1000E-01       62.50    
    345      1      5    100      0.1000E-01       62.50    
    346      1      5    101      0.1000E-01       62.50    
    347      1      5    102      0.1000E-01       62.50    
    348      1      5    103      0.1000E-01       62.50    
    349      1      5    104      0.1000E-01       62.50    
    350      1      5    105      0.1000E-01       62.50    
    351      1      5    106      0.1000E-01       62.50    
    352      1      5    107      0.1000E-01       62.50    
    353      1      5    108      0.1000E-01       62.50    
    354      1      5    109      0.1000E-01       62.50    
    355      1      5    110      0.1000E-01       62.50    
    356      1      5    111      0.1000E-01       62.50    
    357      1      5    112      0.1000E-01       62.50    
    358      1      5    113      0.1000E-01       62.50    
    359      1      5    114      0.1000E-01       62.50    
    360      1      5    115      0.1000E-01       62.50    
    361      1      5    116      0.1000E-01       62.50    
    362      1      5    117      0.1000E-01       62.50    
    363      1      5    118      0.1000E-01       62.50    
    364      1      5    119      0.1000E-01       62.50    
    365      1      5    120      0.1000E-01       62.50    
    366      1      5    121      0.1000E-01       62.50    
    367      1      5    122      0.1000E-01       62.50    
    368      1      5    123      0.1000E-01       62.50    
    369      1      5    124      0.1000E-01       62.50    
    370      1      5    125      0.1000E-01       62.50    
    371      1      5    126      0.1000E-01       62.50    
    372      1      5    127      0.1000E-01       62.50    
    373      1      5    128      0.1000E-01       62.50    
    374      1      5    129      0.1000E-01       62.50    
    375      1      5    130      0.1000E-01       62.50    
    376      1      5    131      0.1000E-01       62.50    
    377      1      5    132      0.1000E-01       62.50    
    378      1      5    133      0.1000E-01       62.50    
    379      1      5    134      0.1000E-01       62.50    
    380      1      5    135      0.1000E-01       62.50    
    381      1      5    136      0.1000E-01       62.50    
    382      1      5    137      0.1000E-01       62.50    
    383      1      5    138      0.1000E-01       62.50    
    384      1      5    139      0.1000E-01       62.50    
    385      1      5    140      0.1000E-01       62.50    
    386      1      5    141      0.1000E-01       62.50    
    387      1      5    142      0.1000E-01       62.50    
    388      1      5    143      0.1000E-01       62.50    
    389      1      5    144      0.1000E-01       62.50    
    390      1      5    145      0.1000E-01       62.50    
    391      1      5    146      0.1000E-01       62.50    
    392      1      5    147      0.1000E-01       62.50    
    393      1      5    148      0.1000E-01       62.50    
    394      1      5    149      0.1000E-01       62.50    
    395      1      5    150      0.1000E-01       62.50    
    396      1      5    151      0.1000E-01       62.50    
    397      1      5    152      0.1000E-01       62.50    
    398      1      5    153      0.1000E-01       62.50    
    399      1      5    154      0.1000E-01       62.50    
    400      1      5    155      0.1000E-01       62.50    
    401      1      5    156      0.1000E-01       62.50    
    402      1      5    157      0.1000E-01       62.50    
    403      1      5    158      0.1000E-01       62.50    
    404      1      5    159      0.1000E-01       62.50    
    405      1      5    160      0.1000E-01       62.50    
    406      1      5    161      0.1000E-01       62.50    
    407      1      5    162      0.1000E-01       62.50    
    408      1      5    163      0.1000E-01       62.50    
    409      1      5    164      0.1000E-01       62.50    
    410      1      5    165      0.1000E-01       62.50    
    411      1      5    166      0.1000E-01       62.50    
    412      1      5    167      0.1000E-01       62.50    
    413      1      5    168      0.1000E-01       62.50    
    414      1      5    169      0.1000E-01       62.50    
    415      1      5    170      0.1000E-01       62.50    
    416      1      5    171      0.1000E-01       62.50    
    417      1      5    172      0.1000E-01       62.50    
    418      1      5    173      0.1000E-01       62.50    
    419      1      5    174      0.1000E-01       62.50    
    420      1      5    175      0.1000E-01       62.50    
    421      1      5    176      0.1000E-01       62.50    
    422      1      5    177      0.1000E-01       62.50    
    423      1      5    178      0.1000E-01       62.50    
    424      1      5    179      0.1000E-01       62.50    
    425      1      5    180      0.1000E-01       62.50    
    426      1      5    181      0.1000E-01       62.50    
    427      1      5    182      0.1000E-01       62.50    
    428      1      5    183      0.1000E-01       62.50    
    429      1      5    184      0.1000E-01       62.50    
    430      1      5    185      0.1000E-01       62.50    
    431      1      5    186      0.1000E-01       62.50    
    432      1      5    187      0.1000E-01       62.50    
    433      1      5    188      0.1000E-01       62.50    
    434      1      5    189      0.1000E-01       62.50    
    435      1      5    190      0.1000E-01       62.50    
    436      1      5    191      0.1000E-01       62.50    
    437      1      5    192      0.1000E-01       62.50    
    438      1      5    193      0.1000E-01       62.50    
    439      1      5    194      0.1000E-01       62.50    
    440      1      5    195      0.1000E-01       62.50    
    441      1      5    196      0.1000E-01       62.50    
    442      1      5    197      0.1000E-01       62.50    
    443      1      5    198      0.1000E-01       62.50    
    444      1      5    199      0.1000E-01       62.50    
    445      1      6     87      0.1000E-01       62.50    
    446      1      6     88      0.1000E-01       62.50    
    447      1      6     89      0.1000E-01       62.50    
    448      1      6     90      0.1000E-01       62.50    
    449      1      6     91      0.1000E-01       62.50    
    450      1      6     92      0.1000E-01       62.50    
    451      1      6     93      0.1000E-01       62.50    
    452      1      6     94      0.1000E-01       62.50    
    453      1      6     95      0.1000E-01       62.50    
    454      1      6     96      0.1000E-01       62.50    
    455      1      6     97      0.1000E-01       62.50    
    456      1      6     98      0.1000E-01       62.50    
    457      1      6     99      0.1000E-01       62.50    
    458      1      6    100      0.1000E-01       62.50    
    459      1      6    101      0.1000E-01       62.50    
    460      1      6    102      0.1000E-01       62.50    
    461      1      6    103      0.1000E-01       62.50    
    462      1      6    104      0.1000E-01       62.50    
    463      1      6    105      0.1000E-01       62.50    
    464      1      6    106      0.1000E-01       62.50    
    465      1      6    107      0.1000E-01       62.50    
    466      1      6    108      0.1000E-01       62.50    
    467      1      6    109      0.1000E-01       62.50    
    468      1      6    110      0.1000E-01       62.50    
    469      1      6    111      0.1000E-01       62.50    
    470      1      6    112      0.1000E-01       62.50    
    471      1      6    113      0.1000E-01       62.50    
    472      1      6    114      0.1000E-01       62.50    
    473      1      6    115      0.1000E-01       62.50    
    474      1      6    116      0.1000E-01       62.50    
    475      1      6    117      0.1000E-01       62.50    
    476      1      6    118      0.1000E-01       62.50    
    477      1      6    119      0.1000E-01       62.50    
    478      1      6    121      0.1000E-01       62.50    
    479      1      6    122      0.1000E-01       62.50    
    480      1      6    123      0.1000E-01       62.50    
    481      1      6    124      0.1000E-01       62.50    
    482      1      6    125      0.1000E-01       62.50    
    483      1      6    126      0.1000E-01       62.50    
    484      1      6    127      0.1000E-01       62.50    
    485      1      6    128      0.1000E-01       62.50    
    486      1      6    129      0.1000E-01       62.50    
    487      1      6    130      0.1000E-01       62.50    
    488      1      6    131      0.1000E-01       62.50    
    489      1      6    132      0.1000E-01       62.50    
    490      1      6    133      0.1000E-01       62.50    
    491      1      6    134      0.1000E-01       62.50    
    492      1      6    135      0.1000E-01       62.50    
    493      1      6    136      0.1000E-01       62.50    
    494      1      6    137      0.1000E-01       62.50    
    495      1      6    138      0.1000E-01       62.50    
    496      1      6    139      0.1000E-01       62.50    
    497      1      6    140      0.1000E-01       62.50    
    498      1      6    141      0.1000E-01       62.50    
    499      1      6    142      0.1000E-01       62.50    
    500      1      6    143      0.1000E-01       62.50    
    501      1      6    144      0.1000E-01       62.50    
    502      1      6    145      0.1000E-01       62.50    
    503      1      6    146      0.1000E-01       62.50    
    504      1      6    147      0.1000E-01       62.50    
[...]
  ------------------------------------------------------------------------------

     CUMULATIVE VOLUMES      L**3       RATES FOR THIS TIME STEP      L**3/T
     ------------------                 ------------------------

           IN:                                      IN:
           ---                                      ---
             STORAGE =           0.0000               STORAGE =           0.0000
       CONSTANT HEAD =           0.0000         CONSTANT HEAD =           0.0000
     HEAD DEP BOUNDS =           0.0000       HEAD DEP BOUNDS =           0.0000
            RECHARGE = 24333666304.0000              RECHARGE =      832773.5625

            TOTAL IN = 24333666304.0000              TOTAL IN =      832773.5625

          OUT:                                     OUT:
          ----                                     ----
             STORAGE =           0.0000               STORAGE =           0.0000
       CONSTANT HEAD =           0.0000         CONSTANT HEAD =           0.0000
     HEAD DEP BOUNDS = 24333666304.0000       HEAD DEP BOUNDS =      832773.5625
            RECHARGE =           0.0000              RECHARGE =           0.0000

           TOTAL OUT = 24333666304.0000             TOTAL OUT =      832773.5625

            IN - OUT =           0.0000              IN - OUT =           0.0000

 PERCENT DISCREPANCY =           0.00     PERCENT DISCREPANCY =           0.00






         TIME SUMMARY AT END OF TIME STEP   80 IN STRESS PERIOD    1
                    SECONDS     MINUTES      HOURS       DAYS        YEARS
                    -----------------------------------------------------------
   TIME STEP LENGTH 3.15576E+07 5.25960E+05  8766.0      365.25      1.0000    
 STRESS PERIOD TIME 2.52461E+09 4.20768E+07 7.01280E+05  29220.      80.000    
         TOTAL TIME 2.52461E+09 4.20768E+07 7.01280E+05  29220.      80.000    
1
 
 SOLVING FOR HEAD 

 NO OUTPUT CONTROL FOR STRESS PERIOD    1   TIME STEP   81
 
 SOLVING FOR HEAD 

 NO OUTPUT CONTROL FOR STRESS PERIOD    1   TIME STEP   82
 
 SOLVING FOR HEAD 

 NO OUTPUT CONTROL FOR STRESS PERIOD    1   TIME STEP   83
 
 SOLVING FOR HEAD 

 NO OUTPUT CONTROL FOR STRESS PERIOD    1   TIME STEP   84
 
 SOLVING FOR HEAD 

 NO OUTPUT CONTROL FOR STRESS PERIOD    1   TIME STEP   85
 
 SOLVING FOR HEAD 

 NO OUTPUT CONTROL FOR STRESS PERIOD    1   TIME STEP   86
 
 SOLVING FOR HEAD 

 NO OUTPUT CONTROL FOR STRESS PERIOD    1   TIME STEP   87
 
 SOLVING FOR HEAD 

 NO OUTPUT CONTROL FOR STRESS PERIOD    1   TIME STEP   88
 
 SOLVING FOR HEAD 

 NO OUTPUT CONTROL FOR STRESS PERIOD    1   TIME STEP   89
 
 SOLVING FOR HEAD 

 NO OUTPUT CONTROL FOR STRESS PERIOD    1   TIME STEP   90
 
 SOLVING FOR HEAD 

 NO OUTPUT CONTROL FOR STRESS PERIOD    1   TIME STEP   91
 
 SOLVING FOR HEAD 

 NO OUTPUT CONTROL FOR STRESS PERIOD    1   TIME STEP   92
 
 SOLVING FOR HEAD 

 NO OUTPUT CONTROL FOR STRESS PERIOD    1   TIME STEP   93
 
 SOLVING FOR HEAD 

 NO OUTPUT CONTROL FOR STRESS PERIOD    1   TIME STEP   94
 
 SOLVING FOR HEAD 

 NO OUTPUT CONTROL FOR STRESS PERIOD    1   TIME STEP   95
 
 SOLVING FOR HEAD 

 NO OUTPUT CONTROL FOR STRESS PERIOD    1   TIME STEP   96
 
 SOLVING FOR HEAD 

 NO OUTPUT CONTROL FOR STRESS PERIOD    1   TIME STEP   97
 
 SOLVING FOR HEAD 

 NO OUTPUT CONTROL FOR STRESS PERIOD    1   TIME STEP   98
 
 SOLVING FOR HEAD 

 NO OUTPUT CONTROL FOR STRESS PERIOD    1   TIME STEP   99
 
 SOLVING FOR HEAD 

 OUTPUT CONTROL FOR STRESS PERIOD    1   TIME STEP  100
    SAVE HEAD FOR ALL LAYERS
    PRINT BUDGET

 HEAD WILL BE SAVED ON UNIT   51 AT END OF TIME STEP  100, STRESS PERIOD    1
1
  VOLUMETRIC BUDGET FOR ENTIRE MODEL AT END OF TIME STEP  100, STRESS PERIOD   1
  ------------------------------------------------------------------------------

     CUMULATIVE VOLUMES      L**3       RATES FOR THIS TIME STEP      L**3/T
     ------------------                 ------------------------

           IN:                                      IN:
           ---                                      ---
             STORAGE =           0.0000               STORAGE =           0.0000
       CONSTANT HEAD =           0.0000         CONSTANT HEAD =           0.0000
     HEAD DEP BOUNDS =           0.0000       HEAD DEP BOUNDS =           0.0000
            RECHARGE = 30417086464.0000              RECHARGE =      832773.5625

            TOTAL IN = 30417086464.0000              TOTAL IN =      832773.5625

          OUT:                                     OUT:
          ----                                     ----
             STORAGE =           0.0000               STORAGE =           0.0000
       CONSTANT HEAD =           0.0000         CONSTANT HEAD =           0.0000
     HEAD DEP BOUNDS = 30417086464.0000       HEAD DEP BOUNDS =      832773.5625
            RECHARGE =           0.0000              RECHARGE =           0.0000

           TOTAL OUT = 30417086464.0000             TOTAL OUT =      832773.5625

            IN - OUT =           0.0000              IN - OUT =           0.0000

 PERCENT DISCREPANCY =           0.00     PERCENT DISCREPANCY =           0.00






         TIME SUMMARY AT END OF TIME STEP  100 IN STRESS PERIOD    1
                    SECONDS     MINUTES      HOURS       DAYS        YEARS
                    -----------------------------------------------------------
   TIME STEP LENGTH 3.15576E+07 5.25960E+05  8766.0      365.25      1.0000    
 STRESS PERIOD TIME 3.15576E+09 5.25960E+07 8.76600E+05  36525.      100.00    
         TOTAL TIME 3.15576E+09 5.25960E+07 8.76600E+05  36525.      100.00    
1

 HEAD AND DRAWDOWN OBSERVATIONS
 OBSERVATION       OBSERVED           SIMULATED
   NAME              VALUE              VALUE             DIFFERENCE
 --------------------------------------------------------------------
 Obs_0          5.00000007451E-02   -999.00000000    
 Obs_1          5.00000007451E-02   -999.00000000    
 Obs_2          5.00000007451E-02   -999.00000000    
 Obs_3          5.00000007451E-02   0.39409369230      -0.34409368038    
 Obs_4          5.00000007451E-02   0.56988584995      -0.51988583803    
 Obs_5          5.00000007451E-02   0.66072952747      -0.61072951555    
 Obs_6          5.00000007451E-02   0.43596535921      -0.38596534729    
 Obs_7          5.00000007451E-02   0.30328959227      -0.25328958035    
 Obs_8          5.00000007451E-02   0.23706537485      -0.18706537783    
 Obs_9          5.00000007451E-02   -999.00000000    
 Obs_10         5.00000007451E-02   -999.00000000    
 Obs_11         5.00000007451E-02   -999.00000000    
 Obs_12         5.00000007451E-02   -999.00000000    
 Obs_13         5.00000007451E-02   0.75364863873      -0.70364862680    
 Obs_14         5.00000007451E-02    1.4383403063       -1.3883403540    
 Obs_15         5.00000007451E-02    2.2994315624       -2.2494316101    
 Obs_16         5.00000007451E-02    1.6345349550       -1.5845350027    
 Obs_17         5.00000007451E-02   0.64666193724      -0.59666192532    
 Obs_18         5.00000007451E-02   0.43630856276      -0.38630855083    
 Obs_19         5.00000007451E-02   -999.00000000    
 Obs_20          5.5000000000        3.4317889214        2.0682110786    
 Obs_21         5.00000007451E-02   -999.00000000    
 Obs_22         5.00000007451E-02   -999.00000000    
 Obs_23         5.00000007451E-02   -999.00000000    
 Obs_24         5.00000007451E-02    1.4860016108       -1.4360016584    
 Obs_25         5.00000007451E-02    3.3056945801       -3.2556946278    
 Obs_26         5.00000007451E-02    1.3705599308       -1.3205599785    
 Obs_27         5.00000007451E-02   0.88024395704      -0.83024394512    
 Obs_28         5.00000007451E-02   -999.00000000    
 Obs_29         5.00000007451E-02   -999.00000000    
 Obs_30         5.00000007451E-02   -999.00000000    
 Obs_31         5.00000007451E-02   -999.00000000    
 Obs_32         5.00000007451E-02    2.4344978333       -2.3844978809    
 Obs_33         5.00000007451E-02    2.7842960358       -2.7342960835    
 Obs_34         5.00000007451E-02    1.9377667904       -1.8877668381    
 Obs_35         5.00000007451E-02   -999.00000000    
 Obs_36         5.00000007451E-02   -999.00000000    
 Obs_37         5.00000007451E-02   -999.00000000    
 Obs_38         5.00000007451E-02    1.6072493792       -1.5572494268    
 Obs_39         5.00000007451E-02    3.5801963806       -3.5301964283    
 Obs_40         5.00000007451E-02    3.7958991528       -3.7458992004    
 Obs_41         5.00000007451E-02    2.9809472561       -2.9309473038    
 Obs_42         0.20000000298        5.9161996841       -5.7161998749    
 Obs_43         0.40000000596        5.6458997726       -5.2458996773    
 Obs_44         0.30000001192        4.7081856728       -4.4081854820    
 Obs_45         0.60000002384        5.0491747856       -4.4491748810    
 Obs_46          2.2999999523        8.4759244919       -6.1759243011    
 Obs_47          2.5999999046        7.7132520676       -5.1132521629    
 Obs_48          3.5000000000        8.8918304443       -5.3918304443    
 Obs_49         5.00000007451E-02   -999.00000000    
 Obs_50         5.00000007451E-02   -999.00000000    
 Obs_51         5.00000007451E-02    1.5994206667       -1.5494207144    
 Obs_52         5.00000007451E-02    3.8470921516       -3.7970921993    
 Obs_53          1.2000000477        7.1575207710       -5.9575204849    
 Obs_54         5.00000007451E-02    3.6809620857       -3.6309621334    
 Obs_55          3.5999999046        9.4220743179       -5.8220744133    
 Obs_56          2.4298999310        7.7882132530       -5.3583135605    
 Obs_57         5.00000007451E-02   -999.00000000    
 Obs_58         5.00000007451E-02   0.96220630407      -0.91220629215    
 Obs_59         5.00000007451E-02    1.4745599031       -1.4245599508    
 Obs_60         5.00000007451E-02    3.6279349327       -3.5779349804    
 Obs_61         5.00000007451E-02    4.2136855125       -4.1636853218    
 Obs_62          1.8999999762        7.5439434052       -5.6439433098    
 Obs_63          1.2999999523        9.6874933243       -8.3874931335    
 Obs_64         0.89999997616        7.5715484619       -6.6715483665    
 Obs_65          44.700000763        12.312287331        32.387714386    
 Obs_66          2.5999999046        7.5676693916       -4.9676694870    
 Obs_67          1.7000000477        7.5502514839       -5.8502511978    
 Obs_68          3.0000000000        12.260869026       -9.2608690262    
 Obs_69          1.7999999523        7.7443776131       -5.9443778992    
 Obs_70         5.00000007451E-02   -999.00000000    
 Obs_71         5.00000007451E-02   0.92931634188      -0.87931632996    
 Obs_72         5.00000007451E-02    1.5014898777       -1.4514899254    
 Obs_73         5.00000007451E-02    4.2567915916       -4.2067914009    
 Obs_74          5.9000000954        13.526782990       -7.6267828941    
 Obs_75          19.200000763        12.647035599        6.5529651642    
 Obs_76         5.00000007451E-02   -999.00000000    
 Obs_77          8.0000000000        14.011940002       -6.0119400024    
 Obs_78          8.1999998093        13.016821861       -4.8168220520    
 Obs_79          5.7500000000        12.755427361       -7.0054273605    
 Obs_80          34.200000763        14.091003418        20.108997345    
 Obs_81          3.2000000477        12.284093857       -9.0840940475    
 Obs_82          16.853000641        14.555007935        2.2979927063    
 Obs_83          25.399999619        13.002210617        12.397789001    
 Obs_84          1.7999999523        12.029269218       -10.229269028    
 Obs_85          8.8000001907        12.107107162       -3.3071069717    
 Obs_86         0.85000002384        10.499422073       -9.6494216919    
 Obs_87         0.89999997616        10.248054504       -9.3480548859    
 Obs_88         0.60000002384        5.1703562737       -4.5703563690    
 Obs_89          20.299999237        12.987693787        7.3123054504    
 Obs_90          1.7999999523        10.763798714       -8.9637985229    
 Obs_91          1.6276999712        10.185647011       -8.5579471588    
 Obs_92         0.30000001192        8.4102106094       -8.1102104187    
 Obs_93         5.00000007451E-02   0.80303037167      -0.75303035975    
 Obs_94         5.00000007451E-02    1.2492318153       -1.1992318630    
 Obs_95         5.00000007451E-02    2.4761934280       -2.4261934757    
 Obs_96         5.00000007451E-02    7.9607234001       -7.9107232094    
 Obs_97         5.00000007451E-02    3.9880836010       -3.9380836487    
 Obs_98         5.00000007451E-02   -999.00000000    
 Obs_99         0.50000000000        5.9475307465       -5.4475307465    
 Obs_100         1.0000000000        8.1898851395       -7.1898851395    
 Obs_101         62.500000000        18.987360001        43.512641907    
 Obs_102        5.00000007451E-02    1.0774713755       -1.0274714231    
 Obs_103        5.00000007451E-02    2.2605681419       -2.2105681896    
 Obs_104         15.800000191        12.332879066        3.4671211243    
 Obs_105        5.00000007451E-02   -999.00000000    
 Obs_106        5.00000007451E-02   -999.00000000    
 Obs_107        5.00000007451E-02   -999.00000000    
 Obs_108         1.2000000477        8.8857717514       -7.6857719421    
 Obs_109         7.3000001907        10.130534172       -2.8305339813    
 Obs_110         7.3000001907        11.559803009       -4.2598028183    
 Obs_111         9.8000001907        13.171220779       -3.3712205887    
 Obs_112         16.466699600        14.653990746        1.8127088547    
 Obs_113         1.2000000477        7.1190352440       -5.9190349579    
 Obs_114         3.0000000000        8.6101694107       -5.6101694107    
 Obs_115        5.00000007451E-02    1.5793325901       -1.5293326378    
 Obs_116         6.6500000954        9.0242462158       -2.3742461205    
 Obs_117        5.00000007451E-02    3.0169970989       -2.9669971466    
 Obs_118        5.00000007451E-02    2.7218670845       -2.6718671322    
 Obs_119        5.00000007451E-02   -999.00000000    
 Obs_120        5.00000007451E-02   -999.00000000    
 Obs_121        5.00000007451E-02   -999.00000000    
 Obs_122         2.7000000477        7.6347284317       -4.9347286224    
 Obs_123         6.0999999046        6.1738853455      -7.38854408264E-02
 Obs_124        0.10000000149        4.7739567757       -4.6739568710    
 Obs_125        5.00000007451E-02    1.9610289335       -1.9110289812    
 Obs_126        5.00000007451E-02    1.2774711847       -1.2274712324    
 Obs_127        5.00000007451E-02    1.3100804090       -1.2600804567    
 Obs_128        5.00000007451E-02   -999.00000000    
 Obs_129        5.00000007451E-02   -999.00000000    
 Obs_130        5.00000007451E-02   -999.00000000    
 Obs_131         8.1000003815        4.4262442589        3.6737561226    
 Obs_132         8.1999998093        4.3740825653        3.8259172440    
 Obs_133        5.00000007451E-02    1.5686714649       -1.5186715126    
 Obs_134         4.3000001907        4.4963331223      -0.19633293152    
 Obs_135         5.5666999817        4.4313678741        1.1353321075    
 Obs_136        5.00000007451E-02    1.2911062241       -1.2411062717    
 Obs_137        5.00000007451E-02   0.67260110378      -0.62260109186    
 Obs_138        5.00000007451E-02   -999.00000000    
 Obs_139        5.00000007451E-02   -999.00000000    
 Obs_140        5.00000007451E-02   -999.00000000    
 Obs_141        5.00000007451E-02   -999.00000000    
 Obs_142         5.5000000000        4.4242095947        1.0757904053    
 Obs_143         7.3000001907        3.3124711514        3.9875290394    
 Obs_144         6.0000000000        3.0889344215        2.9110655785    
 Obs_145        5.00000007451E-02    1.2888183594       -1.2388184071    
 Obs_146        5.00000007451E-02    3.0163025856       -2.9663026333    
 Obs_147        5.00000007451E-02    1.1105091572       -1.0605092049    
 Obs_148        5.00000007451E-02   0.59489786625      -0.54489785433    
 Obs_149        5.00000007451E-02   -999.00000000    
 Obs_150        5.00000007451E-02   -999.00000000    
 Obs_151        5.00000007451E-02   -999.00000000    
 Obs_152        5.00000007451E-02   -999.00000000    
 Obs_153        5.00000007451E-02    1.0841586590       -1.0341587067    
 Obs_154        5.00000007451E-02    1.7346079350       -1.6846079826    
 Obs_155        5.00000007451E-02   0.74086487293      -0.69086486101    
 Obs_156        5.00000007451E-02   -999.00000000    
 Obs_157        5.00000007451E-02   -999.00000000    
 Obs_158        5.00000007451E-02   -999.00000000    
 Obs_159        5.00000007451E-02   -999.00000000    
 Obs_160        5.00000007451E-02   -999.00000000    
 Obs_161        5.00000007451E-02   0.81355023384      -0.76355022192    
 Obs_162        5.00000007451E-02   0.91715949774      -0.86715948582    
 Obs_163        5.00000007451E-02   0.40950241685      -0.35950240493    
 Obs_164        5.00000007451E-02   -999.00000000    
 Obs_165        5.00000007451E-02   -999.00000000    
 Obs_166        5.00000007451E-02   -999.00000000    
 Obs_167        5.00000007451E-02   -999.00000000    
 Obs_168        5.00000007451E-02   -999.00000000    
 Obs_169        5.00000007451E-02   0.51809203625      -0.46809202433    
 Obs_170        5.00000007451E-02    1.1383295059       -1.0883295536    
 Obs_171        5.00000007451E-02   0.26779466867      -0.21779467165    
 Obs_172        5.00000007451E-02   -999.00000000    
 Obs_173        5.00000007451E-02   -999.00000000    
 Obs_174        5.00000007451E-02   -999.00000000    
 Obs_175        5.00000007451E-02   -999.00000000    
 Obs_176        5.00000007451E-02   -999.00000000    
 Obs_177         2.7000000477        1.3090342283        1.3909658194    
 Obs_178         5.3000001907        1.0881153345        4.2118849754    
 Obs_179        5.00000007451E-02   0.47989147902      -0.42989146709    
 Obs_180        5.00000007451E-02   0.47477307916      -0.42477306724    
 Obs_181        5.00000007451E-02   0.21236571670      -0.16236571968    
 Obs_182        5.00000007451E-02   -999.00000000    
 Obs_183        5.00000007451E-02   -999.00000000    
 Obs_184        5.00000007451E-02   -999.00000000    
 Obs_185        5.00000007451E-02   -999.00000000    
 Obs_186        5.00000007451E-02   -999.00000000    
 Obs_187         3.0999999046       0.84748929739        2.2525105476    
 Obs_188        5.00000007451E-02   0.37099301815      -0.32099300623    
 Obs_189         3.0000000000       0.74550759792        2.2544922829    
 Obs_190        5.00000007451E-02   0.28654643893      -0.23654644191    
 Obs_191        5.00000007451E-02   0.15433786809      -0.10433787107    
 Obs_192        5.00000007451E-02   -999.00000000    
 Obs_193        5.00000007451E-02   -999.00000000    
 Obs_194        5.00000007451E-02   -999.00000000    
 Obs_195        5.00000007451E-02   -999.00000000    
 Obs_196        5.00000007451E-02   -999.00000000    
 Obs_197         5.6999998093       0.69607907534        5.0039205551    
 Obs_198        5.00000007451E-02   0.24459232390      -0.19459232688    
 Obs_199        5.00000007451E-02   0.31956195831      -0.26956194639    
 Obs_200        5.00000007451E-02   0.29889816046      -0.24889816344    
 Obs_201        5.00000007451E-02   0.19815795124      -0.14815795422    
 Obs_202        5.00000007451E-02   -999.00000000    
 Obs_203        5.00000007451E-02   -999.00000000    
 Obs_204        5.00000007451E-02   -999.00000000    
 Obs_205        5.00000007451E-02   -999.00000000    
 Obs_206        5.00000007451E-02   -999.00000000    
 Obs_207        5.00000007451E-02   -999.00000000    

 HEAD/DRAWDOWN SUM OF SQUARED DIFFERENCE:    5.73629E+03

 Run end date and time (yyyy/mm/dd hh:mm:ss): 2019/09/12 16:37:23
 Elapsed run time:  0.355 Seconds

